version 2
run nodebug-0-20160908-17:04:12-29242
attr configname nodebug
attr datetime 20160908-17:04:12
attr experiment nodebug
attr inifile omnetpp.ini
attr iterationvars ""
attr iterationvars2 $repetition=0
attr measurement ""
attr network warning_scenario
attr processid 29242
attr repetition 0
attr replication #0
attr resultdir results
attr runnumber 0
attr seedset 0

scalar warning_scenario.node[0].nic.phy80211p 	busyTime 	0.005406263565891
scalar warning_scenario.node[0].nic.mac1609_4 	ReceivedUnicastPackets 	0
scalar warning_scenario.node[0].nic.mac1609_4 	ReceivedBroadcasts 	7104
scalar warning_scenario.node[0].nic.mac1609_4 	SentPackets 	258
scalar warning_scenario.node[0].nic.mac1609_4 	SNIRLostPackets 	3120
scalar warning_scenario.node[0].nic.mac1609_4 	RXTXLostPackets 	0
scalar warning_scenario.node[0].nic.mac1609_4 	TotalLostPackets 	3120
scalar warning_scenario.node[0].nic.mac1609_4 	DroppedPacketsInMac 	0
scalar warning_scenario.node[0].nic.mac1609_4 	TooLittleTime 	0
scalar warning_scenario.node[0].nic.mac1609_4 	TimesIntoBackoff 	258
scalar warning_scenario.node[0].nic.mac1609_4 	SlotsBackoff 	368
scalar warning_scenario.node[0].nic.mac1609_4 	NumInternalContention 	0
scalar warning_scenario.node[0].nic.mac1609_4 	totalBusyTime 	1.430162
scalar warning_scenario.node[0].veinsmobility 	startTime 	1
scalar warning_scenario.node[0].veinsmobility 	totalTime 	257
scalar warning_scenario.node[0].veinsmobility 	stopTime 	259
scalar warning_scenario.node[0].veinsmobility 	minSpeed 	3.6253133033653
scalar warning_scenario.node[0].veinsmobility 	maxSpeed 	13.998597038973
scalar warning_scenario.node[0].veinsmobility 	totalDistance 	3399.1006042447
scalar warning_scenario.node[0].veinsmobility 	totalCO2Emission 	579.36593679352
scalar warning_scenario.node[1].nic.phy80211p 	busyTime 	0.0055298281505494
scalar warning_scenario.node[1].nic.mac1609_4 	ReceivedUnicastPackets 	0
scalar warning_scenario.node[1].nic.mac1609_4 	ReceivedBroadcasts 	7315
scalar warning_scenario.node[1].nic.mac1609_4 	SentPackets 	256
scalar warning_scenario.node[1].nic.mac1609_4 	SNIRLostPackets 	3064
scalar warning_scenario.node[1].nic.mac1609_4 	RXTXLostPackets 	0
scalar warning_scenario.node[1].nic.mac1609_4 	TotalLostPackets 	3064
scalar warning_scenario.node[1].nic.mac1609_4 	DroppedPacketsInMac 	0
scalar warning_scenario.node[1].nic.mac1609_4 	TooLittleTime 	0
scalar warning_scenario.node[1].nic.mac1609_4 	TimesIntoBackoff 	256
scalar warning_scenario.node[1].nic.mac1609_4 	SlotsBackoff 	366
scalar warning_scenario.node[1].nic.mac1609_4 	NumInternalContention 	0
scalar warning_scenario.node[1].nic.mac1609_4 	totalBusyTime 	1.450968
scalar warning_scenario.node[1].veinsmobility 	startTime 	4
scalar warning_scenario.node[1].veinsmobility 	totalTime 	256
scalar warning_scenario.node[1].veinsmobility 	stopTime 	260.04701655317
scalar warning_scenario.node[1].veinsmobility 	minSpeed 	3.5265003837409
scalar warning_scenario.node[1].veinsmobility 	maxSpeed 	13.999835834901
scalar warning_scenario.node[1].veinsmobility 	totalDistance 	3384.0480551127
scalar warning_scenario.node[1].veinsmobility 	totalCO2Emission 	569.15687590792
scalar warning_scenario.node[10].nic.phy80211p 	busyTime 	0.0064144384943727
scalar warning_scenario.node[10].nic.mac1609_4 	ReceivedUnicastPackets 	0
scalar warning_scenario.node[10].nic.mac1609_4 	ReceivedBroadcasts 	8476
scalar warning_scenario.node[10].nic.mac1609_4 	SentPackets 	229
scalar warning_scenario.node[10].nic.mac1609_4 	SNIRLostPackets 	2294
scalar warning_scenario.node[10].nic.mac1609_4 	RXTXLostPackets 	0
scalar warning_scenario.node[10].nic.mac1609_4 	TotalLostPackets 	2294
scalar warning_scenario.node[10].nic.mac1609_4 	DroppedPacketsInMac 	0
scalar warning_scenario.node[10].nic.mac1609_4 	TooLittleTime 	0
scalar warning_scenario.node[10].nic.mac1609_4 	TimesIntoBackoff 	229
scalar warning_scenario.node[10].nic.mac1609_4 	SlotsBackoff 	320
scalar warning_scenario.node[10].nic.mac1609_4 	NumInternalContention 	0
scalar warning_scenario.node[10].nic.mac1609_4 	totalBusyTime 	1.500445
scalar warning_scenario.node[10].veinsmobility 	startTime 	31
scalar warning_scenario.node[10].veinsmobility 	totalTime 	229
scalar warning_scenario.node[10].veinsmobility 	stopTime 	260.04701655317
scalar warning_scenario.node[10].veinsmobility 	minSpeed 	3.7719179594186
scalar warning_scenario.node[10].veinsmobility 	maxSpeed 	13.999881321082
scalar warning_scenario.node[10].veinsmobility 	totalDistance 	3040.6208080304
scalar warning_scenario.node[10].veinsmobility 	totalCO2Emission 	517.52771271425
scalar warning_scenario.node[11].nic.phy80211p 	busyTime 	0.0065061862900275
scalar warning_scenario.node[11].nic.mac1609_4 	ReceivedUnicastPackets 	0
scalar warning_scenario.node[11].nic.mac1609_4 	ReceivedBroadcasts 	8563
scalar warning_scenario.node[11].nic.mac1609_4 	SentPackets 	226
scalar warning_scenario.node[11].nic.mac1609_4 	SNIRLostPackets 	2218
scalar warning_scenario.node[11].nic.mac1609_4 	RXTXLostPackets 	0
scalar warning_scenario.node[11].nic.mac1609_4 	TotalLostPackets 	2218
scalar warning_scenario.node[11].nic.mac1609_4 	DroppedPacketsInMac 	0
scalar warning_scenario.node[11].nic.mac1609_4 	TooLittleTime 	0
scalar warning_scenario.node[11].nic.mac1609_4 	TimesIntoBackoff 	226
scalar warning_scenario.node[11].nic.mac1609_4 	SlotsBackoff 	328
scalar warning_scenario.node[11].nic.mac1609_4 	NumInternalContention 	0
scalar warning_scenario.node[11].nic.mac1609_4 	totalBusyTime 	1.50153
scalar warning_scenario.node[11].veinsmobility 	startTime 	34
scalar warning_scenario.node[11].veinsmobility 	totalTime 	226
scalar warning_scenario.node[11].veinsmobility 	stopTime 	260.04701655317
scalar warning_scenario.node[11].veinsmobility 	minSpeed 	3.5979554636973
scalar warning_scenario.node[11].veinsmobility 	maxSpeed 	13.999887751546
scalar warning_scenario.node[11].veinsmobility 	totalDistance 	3000.0731286735
scalar warning_scenario.node[11].veinsmobility 	totalCO2Emission 	510.01091825735
scalar warning_scenario.node[12].nic.phy80211p 	busyTime 	0.0065979631682231
scalar warning_scenario.node[12].nic.mac1609_4 	ReceivedUnicastPackets 	0
scalar warning_scenario.node[12].nic.mac1609_4 	ReceivedBroadcasts 	8659
scalar warning_scenario.node[12].nic.mac1609_4 	SentPackets 	223
scalar warning_scenario.node[12].nic.mac1609_4 	SNIRLostPackets 	2129
scalar warning_scenario.node[12].nic.mac1609_4 	RXTXLostPackets 	0
scalar warning_scenario.node[12].nic.mac1609_4 	TotalLostPackets 	2129
scalar warning_scenario.node[12].nic.mac1609_4 	DroppedPacketsInMac 	0
scalar warning_scenario.node[12].nic.mac1609_4 	TooLittleTime 	0
scalar warning_scenario.node[12].nic.mac1609_4 	TimesIntoBackoff 	223
scalar warning_scenario.node[12].nic.mac1609_4 	SlotsBackoff 	347
scalar warning_scenario.node[12].nic.mac1609_4 	NumInternalContention 	0
scalar warning_scenario.node[12].nic.mac1609_4 	totalBusyTime 	1.502071
scalar warning_scenario.node[12].veinsmobility 	startTime 	37
scalar warning_scenario.node[12].veinsmobility 	totalTime 	223
scalar warning_scenario.node[12].veinsmobility 	stopTime 	260.04701655317
scalar warning_scenario.node[12].veinsmobility 	minSpeed 	3.5098866767555
scalar warning_scenario.node[12].veinsmobility 	maxSpeed 	13.999022939045
scalar warning_scenario.node[12].veinsmobility 	totalDistance 	2959.0256276043
scalar warning_scenario.node[12].veinsmobility 	totalCO2Emission 	504.11168906682
scalar warning_scenario.node[13].nic.phy80211p 	busyTime 	0.0066903883681792
scalar warning_scenario.node[13].nic.mac1609_4 	ReceivedUnicastPackets 	0
scalar warning_scenario.node[13].nic.mac1609_4 	ReceivedBroadcasts 	8768
scalar warning_scenario.node[13].nic.mac1609_4 	SentPackets 	220
scalar warning_scenario.node[13].nic.mac1609_4 	SNIRLostPackets 	2024
scalar warning_scenario.node[13].nic.mac1609_4 	RXTXLostPackets 	0
scalar warning_scenario.node[13].nic.mac1609_4 	TotalLostPackets 	2024
scalar warning_scenario.node[13].nic.mac1609_4 	DroppedPacketsInMac 	0
scalar warning_scenario.node[13].nic.mac1609_4 	TooLittleTime 	0
scalar warning_scenario.node[13].nic.mac1609_4 	TimesIntoBackoff 	220
scalar warning_scenario.node[13].nic.mac1609_4 	SlotsBackoff 	326
scalar warning_scenario.node[13].nic.mac1609_4 	NumInternalContention 	0
scalar warning_scenario.node[13].nic.mac1609_4 	totalBusyTime 	1.502204
scalar warning_scenario.node[13].veinsmobility 	startTime 	40
scalar warning_scenario.node[13].veinsmobility 	totalTime 	220
scalar warning_scenario.node[13].veinsmobility 	stopTime 	260.04701655317
scalar warning_scenario.node[13].veinsmobility 	minSpeed 	3.5880101831732
scalar warning_scenario.node[13].veinsmobility 	maxSpeed 	13.999074614726
scalar warning_scenario.node[13].veinsmobility 	totalDistance 	2917.5699619809
scalar warning_scenario.node[13].veinsmobility 	totalCO2Emission 	499.20980340478
scalar warning_scenario.node[14].nic.phy80211p 	busyTime 	0.0067791026265474
scalar warning_scenario.node[14].nic.mac1609_4 	ReceivedUnicastPackets 	0
scalar warning_scenario.node[14].nic.mac1609_4 	ReceivedBroadcasts 	8872
scalar warning_scenario.node[14].nic.mac1609_4 	SentPackets 	217
scalar warning_scenario.node[14].nic.mac1609_4 	SNIRLostPackets 	1914
scalar warning_scenario.node[14].nic.mac1609_4 	RXTXLostPackets 	0
scalar warning_scenario.node[14].nic.mac1609_4 	TotalLostPackets 	1914
scalar warning_scenario.node[14].nic.mac1609_4 	DroppedPacketsInMac 	0
scalar warning_scenario.node[14].nic.mac1609_4 	TooLittleTime 	0
scalar warning_scenario.node[14].nic.mac1609_4 	TimesIntoBackoff 	217
scalar warning_scenario.node[14].nic.mac1609_4 	SlotsBackoff 	337
scalar warning_scenario.node[14].nic.mac1609_4 	NumInternalContention 	0
scalar warning_scenario.node[14].nic.mac1609_4 	totalBusyTime 	1.500977
scalar warning_scenario.node[14].veinsmobility 	startTime 	43
scalar warning_scenario.node[14].veinsmobility 	totalTime 	217
scalar warning_scenario.node[14].veinsmobility 	stopTime 	260.04701655317
scalar warning_scenario.node[14].veinsmobility 	minSpeed 	3.7233791932297
scalar warning_scenario.node[14].veinsmobility 	maxSpeed 	13.999286729819
scalar warning_scenario.node[14].veinsmobility 	totalDistance 	2875.1140446641
scalar warning_scenario.node[14].veinsmobility 	totalCO2Emission 	492.91367572926
scalar warning_scenario.node[15].nic.phy80211p 	busyTime 	0.0068607730378483
scalar warning_scenario.node[15].nic.mac1609_4 	ReceivedUnicastPackets 	0
scalar warning_scenario.node[15].nic.mac1609_4 	ReceivedBroadcasts 	8965
scalar warning_scenario.node[15].nic.mac1609_4 	SentPackets 	214
scalar warning_scenario.node[15].nic.mac1609_4 	SNIRLostPackets 	1800
scalar warning_scenario.node[15].nic.mac1609_4 	RXTXLostPackets 	0
scalar warning_scenario.node[15].nic.mac1609_4 	TotalLostPackets 	1800
scalar warning_scenario.node[15].nic.mac1609_4 	DroppedPacketsInMac 	0
scalar warning_scenario.node[15].nic.mac1609_4 	TooLittleTime 	0
scalar warning_scenario.node[15].nic.mac1609_4 	TimesIntoBackoff 	214
scalar warning_scenario.node[15].nic.mac1609_4 	SlotsBackoff 	309
scalar warning_scenario.node[15].nic.mac1609_4 	NumInternalContention 	0
scalar warning_scenario.node[15].nic.mac1609_4 	totalBusyTime 	1.49771
scalar warning_scenario.node[15].veinsmobility 	startTime 	46
scalar warning_scenario.node[15].veinsmobility 	totalTime 	214
scalar warning_scenario.node[15].veinsmobility 	stopTime 	260.04701655317
scalar warning_scenario.node[15].veinsmobility 	minSpeed 	3.7796055090364
scalar warning_scenario.node[15].veinsmobility 	maxSpeed 	13.999009976145
scalar warning_scenario.node[15].veinsmobility 	totalDistance 	2832.6345990246
scalar warning_scenario.node[15].veinsmobility 	totalCO2Emission 	486.13596152901
scalar warning_scenario.node[16].nic.phy80211p 	busyTime 	0.0069338104082187
scalar warning_scenario.node[16].nic.mac1609_4 	ReceivedUnicastPackets 	0
scalar warning_scenario.node[16].nic.mac1609_4 	ReceivedBroadcasts 	9039
scalar warning_scenario.node[16].nic.mac1609_4 	SentPackets 	211
scalar warning_scenario.node[16].nic.mac1609_4 	SNIRLostPackets 	1688
scalar warning_scenario.node[16].nic.mac1609_4 	RXTXLostPackets 	0
scalar warning_scenario.node[16].nic.mac1609_4 	TotalLostPackets 	1688
scalar warning_scenario.node[16].nic.mac1609_4 	DroppedPacketsInMac 	0
scalar warning_scenario.node[16].nic.mac1609_4 	TooLittleTime 	0
scalar warning_scenario.node[16].nic.mac1609_4 	TimesIntoBackoff 	211
scalar warning_scenario.node[16].nic.mac1609_4 	SlotsBackoff 	322
scalar warning_scenario.node[16].nic.mac1609_4 	NumInternalContention 	0
scalar warning_scenario.node[16].nic.mac1609_4 	totalBusyTime 	1.492131
scalar warning_scenario.node[16].veinsmobility 	startTime 	49
scalar warning_scenario.node[16].veinsmobility 	totalTime 	211
scalar warning_scenario.node[16].veinsmobility 	stopTime 	260.04701655317
scalar warning_scenario.node[16].veinsmobility 	minSpeed 	3.7525844694042
scalar warning_scenario.node[16].veinsmobility 	maxSpeed 	13.999490627276
scalar warning_scenario.node[16].veinsmobility 	totalDistance 	2790.3291453638
scalar warning_scenario.node[16].veinsmobility 	totalCO2Emission 	480.84336682313
scalar warning_scenario.node[17].nic.phy80211p 	busyTime 	0.0070024171657735
scalar warning_scenario.node[17].nic.mac1609_4 	ReceivedUnicastPackets 	0
scalar warning_scenario.node[17].nic.mac1609_4 	ReceivedBroadcasts 	9092
scalar warning_scenario.node[17].nic.mac1609_4 	SentPackets 	208
scalar warning_scenario.node[17].nic.mac1609_4 	SNIRLostPackets 	1587
scalar warning_scenario.node[17].nic.mac1609_4 	RXTXLostPackets 	0
scalar warning_scenario.node[17].nic.mac1609_4 	TotalLostPackets 	1587
scalar warning_scenario.node[17].nic.mac1609_4 	DroppedPacketsInMac 	0
scalar warning_scenario.node[17].nic.mac1609_4 	TooLittleTime 	0
scalar warning_scenario.node[17].nic.mac1609_4 	TimesIntoBackoff 	208
scalar warning_scenario.node[17].nic.mac1609_4 	SlotsBackoff 	303
scalar warning_scenario.node[17].nic.mac1609_4 	NumInternalContention 	0
scalar warning_scenario.node[17].nic.mac1609_4 	totalBusyTime 	1.485192
scalar warning_scenario.node[17].veinsmobility 	startTime 	52
scalar warning_scenario.node[17].veinsmobility 	totalTime 	208
scalar warning_scenario.node[17].veinsmobility 	stopTime 	260.04701655317
scalar warning_scenario.node[17].veinsmobility 	minSpeed 	3.7452973992093
scalar warning_scenario.node[17].veinsmobility 	maxSpeed 	13.999966116294
scalar warning_scenario.node[17].veinsmobility 	totalDistance 	2750.1075144082
scalar warning_scenario.node[17].veinsmobility 	totalCO2Emission 	474.3879191464
scalar warning_scenario.node[18].nic.phy80211p 	busyTime 	0.0070710416780139
scalar warning_scenario.node[18].nic.mac1609_4 	ReceivedUnicastPackets 	0
scalar warning_scenario.node[18].nic.mac1609_4 	ReceivedBroadcasts 	9175
scalar warning_scenario.node[18].nic.mac1609_4 	SentPackets 	205
scalar warning_scenario.node[18].nic.mac1609_4 	SNIRLostPackets 	1453
scalar warning_scenario.node[18].nic.mac1609_4 	RXTXLostPackets 	0
scalar warning_scenario.node[18].nic.mac1609_4 	TotalLostPackets 	1453
scalar warning_scenario.node[18].nic.mac1609_4 	DroppedPacketsInMac 	0
scalar warning_scenario.node[18].nic.mac1609_4 	TooLittleTime 	0
scalar warning_scenario.node[18].nic.mac1609_4 	TimesIntoBackoff 	205
scalar warning_scenario.node[18].nic.mac1609_4 	SlotsBackoff 	285
scalar warning_scenario.node[18].nic.mac1609_4 	NumInternalContention 	0
scalar warning_scenario.node[18].nic.mac1609_4 	totalBusyTime 	1.477845
scalar warning_scenario.node[18].veinsmobility 	startTime 	55
scalar warning_scenario.node[18].veinsmobility 	totalTime 	205
scalar warning_scenario.node[18].veinsmobility 	stopTime 	260.04701655317
scalar warning_scenario.node[18].veinsmobility 	minSpeed 	3.851786440565
scalar warning_scenario.node[18].veinsmobility 	maxSpeed 	13.999938028543
scalar warning_scenario.node[18].veinsmobility 	totalDistance 	2707.7873147105
scalar warning_scenario.node[18].veinsmobility 	totalCO2Emission 	468.18995103992
scalar warning_scenario.node[19].nic.phy80211p 	busyTime 	0.0071396847358064
scalar warning_scenario.node[19].nic.mac1609_4 	ReceivedUnicastPackets 	0
scalar warning_scenario.node[19].nic.mac1609_4 	ReceivedBroadcasts 	9243
scalar warning_scenario.node[19].nic.mac1609_4 	SentPackets 	202
scalar warning_scenario.node[19].nic.mac1609_4 	SNIRLostPackets 	1331
scalar warning_scenario.node[19].nic.mac1609_4 	RXTXLostPackets 	0
scalar warning_scenario.node[19].nic.mac1609_4 	TotalLostPackets 	1331
scalar warning_scenario.node[19].nic.mac1609_4 	DroppedPacketsInMac 	0
scalar warning_scenario.node[19].nic.mac1609_4 	TooLittleTime 	0
scalar warning_scenario.node[19].nic.mac1609_4 	TimesIntoBackoff 	202
scalar warning_scenario.node[19].nic.mac1609_4 	SlotsBackoff 	325
scalar warning_scenario.node[19].nic.mac1609_4 	NumInternalContention 	0
scalar warning_scenario.node[19].nic.mac1609_4 	totalBusyTime 	1.47009
scalar warning_scenario.node[19].veinsmobility 	startTime 	58
scalar warning_scenario.node[19].veinsmobility 	totalTime 	202
scalar warning_scenario.node[19].veinsmobility 	stopTime 	260.04701655317
scalar warning_scenario.node[19].veinsmobility 	minSpeed 	3.7493905947211
scalar warning_scenario.node[19].veinsmobility 	maxSpeed 	13.999712974976
scalar warning_scenario.node[19].veinsmobility 	totalDistance 	2666.2844329857
scalar warning_scenario.node[19].veinsmobility 	totalCO2Emission 	462.03837100437
scalar warning_scenario.node[2].nic.phy80211p 	busyTime 	0.0056367706658979
scalar warning_scenario.node[2].nic.mac1609_4 	ReceivedUnicastPackets 	0
scalar warning_scenario.node[2].nic.mac1609_4 	ReceivedBroadcasts 	7473
scalar warning_scenario.node[2].nic.mac1609_4 	SentPackets 	253
scalar warning_scenario.node[2].nic.mac1609_4 	SNIRLostPackets 	2983
scalar warning_scenario.node[2].nic.mac1609_4 	RXTXLostPackets 	0
scalar warning_scenario.node[2].nic.mac1609_4 	TotalLostPackets 	2983
scalar warning_scenario.node[2].nic.mac1609_4 	DroppedPacketsInMac 	0
scalar warning_scenario.node[2].nic.mac1609_4 	TooLittleTime 	0
scalar warning_scenario.node[2].nic.mac1609_4 	TimesIntoBackoff 	253
scalar warning_scenario.node[2].nic.mac1609_4 	SlotsBackoff 	386
scalar warning_scenario.node[2].nic.mac1609_4 	NumInternalContention 	0
scalar warning_scenario.node[2].nic.mac1609_4 	totalBusyTime 	1.461029
scalar warning_scenario.node[2].veinsmobility 	startTime 	7
scalar warning_scenario.node[2].veinsmobility 	totalTime 	253
scalar warning_scenario.node[2].veinsmobility 	stopTime 	260.04701655317
scalar warning_scenario.node[2].veinsmobility 	minSpeed 	3.3621719615322
scalar warning_scenario.node[2].veinsmobility 	maxSpeed 	13.997010356491
scalar warning_scenario.node[2].veinsmobility 	totalDistance 	3365.9005951356
scalar warning_scenario.node[2].veinsmobility 	totalCO2Emission 	563.37364353549
scalar warning_scenario.node[20].nic.phy80211p 	busyTime 	0.0072083471776962
scalar warning_scenario.node[20].nic.mac1609_4 	ReceivedUnicastPackets 	0
scalar warning_scenario.node[20].nic.mac1609_4 	ReceivedBroadcasts 	9281
scalar warning_scenario.node[20].nic.mac1609_4 	SentPackets 	199
scalar warning_scenario.node[20].nic.mac1609_4 	SNIRLostPackets 	1236
scalar warning_scenario.node[20].nic.mac1609_4 	RXTXLostPackets 	0
scalar warning_scenario.node[20].nic.mac1609_4 	TotalLostPackets 	1236
scalar warning_scenario.node[20].nic.mac1609_4 	DroppedPacketsInMac 	0
scalar warning_scenario.node[20].nic.mac1609_4 	TooLittleTime 	0
scalar warning_scenario.node[20].nic.mac1609_4 	TimesIntoBackoff 	199
scalar warning_scenario.node[20].nic.mac1609_4 	SlotsBackoff 	305
scalar warning_scenario.node[20].nic.mac1609_4 	NumInternalContention 	0
scalar warning_scenario.node[20].nic.mac1609_4 	totalBusyTime 	1.461927
scalar warning_scenario.node[20].veinsmobility 	startTime 	61
scalar warning_scenario.node[20].veinsmobility 	totalTime 	199
scalar warning_scenario.node[20].veinsmobility 	stopTime 	260.04701655317
scalar warning_scenario.node[20].veinsmobility 	minSpeed 	3.5752675009753
scalar warning_scenario.node[20].veinsmobility 	maxSpeed 	13.998977653994
scalar warning_scenario.node[20].veinsmobility 	totalDistance 	2625.5102081303
scalar warning_scenario.node[20].veinsmobility 	totalCO2Emission 	456.12224577124
scalar warning_scenario.node[21].nic.phy80211p 	busyTime 	0.007277029893556
scalar warning_scenario.node[21].nic.mac1609_4 	ReceivedUnicastPackets 	0
scalar warning_scenario.node[21].nic.mac1609_4 	ReceivedBroadcasts 	9335
scalar warning_scenario.node[21].nic.mac1609_4 	SentPackets 	196
scalar warning_scenario.node[21].nic.mac1609_4 	SNIRLostPackets 	1122
scalar warning_scenario.node[21].nic.mac1609_4 	RXTXLostPackets 	0
scalar warning_scenario.node[21].nic.mac1609_4 	TotalLostPackets 	1122
scalar warning_scenario.node[21].nic.mac1609_4 	DroppedPacketsInMac 	0
scalar warning_scenario.node[21].nic.mac1609_4 	TooLittleTime 	0
scalar warning_scenario.node[21].nic.mac1609_4 	TimesIntoBackoff 	196
scalar warning_scenario.node[21].nic.mac1609_4 	SlotsBackoff 	293
scalar warning_scenario.node[21].nic.mac1609_4 	NumInternalContention 	0
scalar warning_scenario.node[21].nic.mac1609_4 	totalBusyTime 	1.453356
scalar warning_scenario.node[21].veinsmobility 	startTime 	64
scalar warning_scenario.node[21].veinsmobility 	totalTime 	196
scalar warning_scenario.node[21].veinsmobility 	stopTime 	260.04701655317
scalar warning_scenario.node[21].veinsmobility 	minSpeed 	3.7186333630672
scalar warning_scenario.node[21].veinsmobility 	maxSpeed 	13.998934576176
scalar warning_scenario.node[21].veinsmobility 	totalDistance 	2585.0750361942
scalar warning_scenario.node[21].veinsmobility 	totalCO2Emission 	449.74554542961
scalar warning_scenario.node[22].nic.phy80211p 	busyTime 	0.007345733828574
scalar warning_scenario.node[22].nic.mac1609_4 	ReceivedUnicastPackets 	0
scalar warning_scenario.node[22].nic.mac1609_4 	ReceivedBroadcasts 	9368
scalar warning_scenario.node[22].nic.mac1609_4 	SentPackets 	193
scalar warning_scenario.node[22].nic.mac1609_4 	SNIRLostPackets 	1026
scalar warning_scenario.node[22].nic.mac1609_4 	RXTXLostPackets 	0
scalar warning_scenario.node[22].nic.mac1609_4 	TotalLostPackets 	1026
scalar warning_scenario.node[22].nic.mac1609_4 	DroppedPacketsInMac 	0
scalar warning_scenario.node[22].nic.mac1609_4 	TooLittleTime 	0
scalar warning_scenario.node[22].nic.mac1609_4 	TimesIntoBackoff 	193
scalar warning_scenario.node[22].nic.mac1609_4 	SlotsBackoff 	286
scalar warning_scenario.node[22].nic.mac1609_4 	NumInternalContention 	0
scalar warning_scenario.node[22].nic.mac1609_4 	totalBusyTime 	1.444377
scalar warning_scenario.node[22].veinsmobility 	startTime 	67
scalar warning_scenario.node[22].veinsmobility 	totalTime 	193
scalar warning_scenario.node[22].veinsmobility 	stopTime 	260.04701655317
scalar warning_scenario.node[22].veinsmobility 	minSpeed 	3.609261437838
scalar warning_scenario.node[22].veinsmobility 	maxSpeed 	13.999382290626
scalar warning_scenario.node[22].veinsmobility 	totalDistance 	2541.7821417781
scalar warning_scenario.node[22].veinsmobility 	totalCO2Emission 	443.6000026474
scalar warning_scenario.node[23].nic.phy80211p 	busyTime 	0.0074144599876193
scalar warning_scenario.node[23].nic.mac1609_4 	ReceivedUnicastPackets 	0
scalar warning_scenario.node[23].nic.mac1609_4 	ReceivedBroadcasts 	9396
scalar warning_scenario.node[23].nic.mac1609_4 	SentPackets 	190
scalar warning_scenario.node[23].nic.mac1609_4 	SNIRLostPackets 	932
scalar warning_scenario.node[23].nic.mac1609_4 	RXTXLostPackets 	0
scalar warning_scenario.node[23].nic.mac1609_4 	TotalLostPackets 	932
scalar warning_scenario.node[23].nic.mac1609_4 	DroppedPacketsInMac 	0
scalar warning_scenario.node[23].nic.mac1609_4 	TooLittleTime 	0
scalar warning_scenario.node[23].nic.mac1609_4 	TimesIntoBackoff 	190
scalar warning_scenario.node[23].nic.mac1609_4 	SlotsBackoff 	293
scalar warning_scenario.node[23].nic.mac1609_4 	NumInternalContention 	0
scalar warning_scenario.node[23].nic.mac1609_4 	totalBusyTime 	1.43499
scalar warning_scenario.node[23].veinsmobility 	startTime 	70
scalar warning_scenario.node[23].veinsmobility 	totalTime 	190
scalar warning_scenario.node[23].veinsmobility 	stopTime 	260.04701655317
scalar warning_scenario.node[23].veinsmobility 	minSpeed 	3.5783729172415
scalar warning_scenario.node[23].veinsmobility 	maxSpeed 	13.999559647026
scalar warning_scenario.node[23].veinsmobility 	totalDistance 	2499.7671368988
scalar warning_scenario.node[23].veinsmobility 	totalCO2Emission 	437.88302470922
scalar warning_scenario.node[24].nic.phy80211p 	busyTime 	0.0074832094400288
scalar warning_scenario.node[24].nic.mac1609_4 	ReceivedUnicastPackets 	0
scalar warning_scenario.node[24].nic.mac1609_4 	ReceivedBroadcasts 	9439
scalar warning_scenario.node[24].nic.mac1609_4 	SentPackets 	187
scalar warning_scenario.node[24].nic.mac1609_4 	SNIRLostPackets 	820
scalar warning_scenario.node[24].nic.mac1609_4 	RXTXLostPackets 	0
scalar warning_scenario.node[24].nic.mac1609_4 	TotalLostPackets 	820
scalar warning_scenario.node[24].nic.mac1609_4 	DroppedPacketsInMac 	0
scalar warning_scenario.node[24].nic.mac1609_4 	TooLittleTime 	0
scalar warning_scenario.node[24].nic.mac1609_4 	TimesIntoBackoff 	187
scalar warning_scenario.node[24].nic.mac1609_4 	SlotsBackoff 	276
scalar warning_scenario.node[24].nic.mac1609_4 	NumInternalContention 	0
scalar warning_scenario.node[24].nic.mac1609_4 	totalBusyTime 	1.425195
scalar warning_scenario.node[24].veinsmobility 	startTime 	73
scalar warning_scenario.node[24].veinsmobility 	totalTime 	187
scalar warning_scenario.node[24].veinsmobility 	stopTime 	260.04701655317
scalar warning_scenario.node[24].veinsmobility 	minSpeed 	3.6567817781228
scalar warning_scenario.node[24].veinsmobility 	maxSpeed 	13.997898072412
scalar warning_scenario.node[24].veinsmobility 	totalDistance 	2457.5309225297
scalar warning_scenario.node[24].veinsmobility 	totalCO2Emission 	431.468230694
scalar warning_scenario.node[25].nic.phy80211p 	busyTime 	0.0075519833248608
scalar warning_scenario.node[25].nic.mac1609_4 	ReceivedUnicastPackets 	0
scalar warning_scenario.node[25].nic.mac1609_4 	ReceivedBroadcasts 	9455
scalar warning_scenario.node[25].nic.mac1609_4 	SentPackets 	184
scalar warning_scenario.node[25].nic.mac1609_4 	SNIRLostPackets 	732
scalar warning_scenario.node[25].nic.mac1609_4 	RXTXLostPackets 	0
scalar warning_scenario.node[25].nic.mac1609_4 	TotalLostPackets 	732
scalar warning_scenario.node[25].nic.mac1609_4 	DroppedPacketsInMac 	0
scalar warning_scenario.node[25].nic.mac1609_4 	TooLittleTime 	0
scalar warning_scenario.node[25].nic.mac1609_4 	TimesIntoBackoff 	184
scalar warning_scenario.node[25].nic.mac1609_4 	SlotsBackoff 	290
scalar warning_scenario.node[25].nic.mac1609_4 	NumInternalContention 	0
scalar warning_scenario.node[25].nic.mac1609_4 	totalBusyTime 	1.414992
scalar warning_scenario.node[25].veinsmobility 	startTime 	76
scalar warning_scenario.node[25].veinsmobility 	totalTime 	184
scalar warning_scenario.node[25].veinsmobility 	stopTime 	260.04701655317
scalar warning_scenario.node[25].veinsmobility 	minSpeed 	3.4972880419006
scalar warning_scenario.node[25].veinsmobility 	maxSpeed 	13.999440577319
scalar warning_scenario.node[25].veinsmobility 	totalDistance 	2416.5942667544
scalar warning_scenario.node[25].veinsmobility 	totalCO2Emission 	426.21236588021
scalar warning_scenario.node[26].nic.phy80211p 	busyTime 	0.0076207828566715
scalar warning_scenario.node[26].nic.mac1609_4 	ReceivedUnicastPackets 	0
scalar warning_scenario.node[26].nic.mac1609_4 	ReceivedBroadcasts 	9455
scalar warning_scenario.node[26].nic.mac1609_4 	SentPackets 	181
scalar warning_scenario.node[26].nic.mac1609_4 	SNIRLostPackets 	657
scalar warning_scenario.node[26].nic.mac1609_4 	RXTXLostPackets 	0
scalar warning_scenario.node[26].nic.mac1609_4 	TotalLostPackets 	657
scalar warning_scenario.node[26].nic.mac1609_4 	DroppedPacketsInMac 	0
scalar warning_scenario.node[26].nic.mac1609_4 	TooLittleTime 	0
scalar warning_scenario.node[26].nic.mac1609_4 	TimesIntoBackoff 	181
scalar warning_scenario.node[26].nic.mac1609_4 	SlotsBackoff 	293
scalar warning_scenario.node[26].nic.mac1609_4 	NumInternalContention 	0
scalar warning_scenario.node[26].nic.mac1609_4 	totalBusyTime 	1.404381
scalar warning_scenario.node[26].veinsmobility 	startTime 	79
scalar warning_scenario.node[26].veinsmobility 	totalTime 	181
scalar warning_scenario.node[26].veinsmobility 	stopTime 	260.04701655317
scalar warning_scenario.node[26].veinsmobility 	minSpeed 	3.6105866693018
scalar warning_scenario.node[26].veinsmobility 	maxSpeed 	13.999603239582
scalar warning_scenario.node[26].veinsmobility 	totalDistance 	2374.6064948286
scalar warning_scenario.node[26].veinsmobility 	totalCO2Emission 	419.63338963127
scalar warning_scenario.node[27].nic.phy80211p 	busyTime 	0.0076888454886921
scalar warning_scenario.node[27].nic.mac1609_4 	ReceivedUnicastPackets 	0
scalar warning_scenario.node[27].nic.mac1609_4 	ReceivedBroadcasts 	9450
scalar warning_scenario.node[27].nic.mac1609_4 	SentPackets 	179
scalar warning_scenario.node[27].nic.mac1609_4 	SNIRLostPackets 	583
scalar warning_scenario.node[27].nic.mac1609_4 	RXTXLostPackets 	0
scalar warning_scenario.node[27].nic.mac1609_4 	TotalLostPackets 	583
scalar warning_scenario.node[27].nic.mac1609_4 	DroppedPacketsInMac 	0
scalar warning_scenario.node[27].nic.mac1609_4 	TooLittleTime 	0
scalar warning_scenario.node[27].nic.mac1609_4 	TimesIntoBackoff 	179
scalar warning_scenario.node[27].nic.mac1609_4 	SlotsBackoff 	271
scalar warning_scenario.node[27].nic.mac1609_4 	NumInternalContention 	0
scalar warning_scenario.node[27].nic.mac1609_4 	totalBusyTime 	1.393363
scalar warning_scenario.node[27].veinsmobility 	startTime 	82
scalar warning_scenario.node[27].veinsmobility 	totalTime 	178
scalar warning_scenario.node[27].veinsmobility 	stopTime 	260.04701655317
scalar warning_scenario.node[27].veinsmobility 	minSpeed 	3.7190683887891
scalar warning_scenario.node[27].veinsmobility 	maxSpeed 	13.999501384608
scalar warning_scenario.node[27].veinsmobility 	totalDistance 	2333.0677100287
scalar warning_scenario.node[27].veinsmobility 	totalCO2Emission 	413.81170704619
scalar warning_scenario.node[28].nic.phy80211p 	busyTime 	0.0077576872016408
scalar warning_scenario.node[28].nic.mac1609_4 	ReceivedUnicastPackets 	0
scalar warning_scenario.node[28].nic.mac1609_4 	ReceivedBroadcasts 	9476
scalar warning_scenario.node[28].nic.mac1609_4 	SentPackets 	176
scalar warning_scenario.node[28].nic.mac1609_4 	SNIRLostPackets 	476
scalar warning_scenario.node[28].nic.mac1609_4 	RXTXLostPackets 	0
scalar warning_scenario.node[28].nic.mac1609_4 	TotalLostPackets 	476
scalar warning_scenario.node[28].nic.mac1609_4 	DroppedPacketsInMac 	0
scalar warning_scenario.node[28].nic.mac1609_4 	TooLittleTime 	0
scalar warning_scenario.node[28].nic.mac1609_4 	TimesIntoBackoff 	176
scalar warning_scenario.node[28].nic.mac1609_4 	SlotsBackoff 	280
scalar warning_scenario.node[28].nic.mac1609_4 	NumInternalContention 	0
scalar warning_scenario.node[28].nic.mac1609_4 	totalBusyTime 	1.381936
scalar warning_scenario.node[28].veinsmobility 	startTime 	85
scalar warning_scenario.node[28].veinsmobility 	totalTime 	175
scalar warning_scenario.node[28].veinsmobility 	stopTime 	260.04701655317
scalar warning_scenario.node[28].veinsmobility 	minSpeed 	3.7006861038021
scalar warning_scenario.node[28].veinsmobility 	maxSpeed 	13.999923923542
scalar warning_scenario.node[28].veinsmobility 	totalDistance 	2290.1789773141
scalar warning_scenario.node[28].veinsmobility 	totalCO2Emission 	407.09212411537
scalar warning_scenario.node[29].nic.phy80211p 	busyTime 	0.0078273487502398
scalar warning_scenario.node[29].nic.mac1609_4 	ReceivedUnicastPackets 	0
scalar warning_scenario.node[29].nic.mac1609_4 	ReceivedBroadcasts 	9453
scalar warning_scenario.node[29].nic.mac1609_4 	SentPackets 	172
scalar warning_scenario.node[29].nic.mac1609_4 	SNIRLostPackets 	416
scalar warning_scenario.node[29].nic.mac1609_4 	RXTXLostPackets 	0
scalar warning_scenario.node[29].nic.mac1609_4 	TotalLostPackets 	416
scalar warning_scenario.node[29].nic.mac1609_4 	DroppedPacketsInMac 	0
scalar warning_scenario.node[29].nic.mac1609_4 	TooLittleTime 	0
scalar warning_scenario.node[29].nic.mac1609_4 	TimesIntoBackoff 	172
scalar warning_scenario.node[29].nic.mac1609_4 	SlotsBackoff 	267
scalar warning_scenario.node[29].nic.mac1609_4 	NumInternalContention 	0
scalar warning_scenario.node[29].nic.mac1609_4 	totalBusyTime 	1.3701
scalar warning_scenario.node[29].veinsmobility 	startTime 	88
scalar warning_scenario.node[29].veinsmobility 	totalTime 	172
scalar warning_scenario.node[29].veinsmobility 	stopTime 	260.04701655317
scalar warning_scenario.node[29].veinsmobility 	minSpeed 	3.788531612405
scalar warning_scenario.node[29].veinsmobility 	maxSpeed 	13.999553831457
scalar warning_scenario.node[29].veinsmobility 	totalDistance 	2247.5043557546
scalar warning_scenario.node[29].veinsmobility 	totalCO2Emission 	400.48554911374
scalar warning_scenario.node[3].nic.phy80211p 	busyTime 	0.0057408403418988
scalar warning_scenario.node[3].nic.mac1609_4 	ReceivedUnicastPackets 	0
scalar warning_scenario.node[3].nic.mac1609_4 	ReceivedBroadcasts 	7648
scalar warning_scenario.node[3].nic.mac1609_4 	SentPackets 	250
scalar warning_scenario.node[3].nic.mac1609_4 	SNIRLostPackets 	2875
scalar warning_scenario.node[3].nic.mac1609_4 	RXTXLostPackets 	0
scalar warning_scenario.node[3].nic.mac1609_4 	TotalLostPackets 	2875
scalar warning_scenario.node[3].nic.mac1609_4 	DroppedPacketsInMac 	0
scalar warning_scenario.node[3].nic.mac1609_4 	TooLittleTime 	0
scalar warning_scenario.node[3].nic.mac1609_4 	TimesIntoBackoff 	250
scalar warning_scenario.node[3].nic.mac1609_4 	SlotsBackoff 	400
scalar warning_scenario.node[3].nic.mac1609_4 	NumInternalContention 	0
scalar warning_scenario.node[3].nic.mac1609_4 	totalBusyTime 	1.46973
scalar warning_scenario.node[3].veinsmobility 	startTime 	10
scalar warning_scenario.node[3].veinsmobility 	totalTime 	250
scalar warning_scenario.node[3].veinsmobility 	stopTime 	260.04701655317
scalar warning_scenario.node[3].veinsmobility 	minSpeed 	3.5267075399639
scalar warning_scenario.node[3].veinsmobility 	maxSpeed 	13.999725788534
scalar warning_scenario.node[3].veinsmobility 	totalDistance 	3330.3169706605
scalar warning_scenario.node[3].veinsmobility 	totalCO2Emission 	559.19145320286
scalar warning_scenario.node[30].nic.phy80211p 	busyTime 	0.0078962647624137
scalar warning_scenario.node[30].nic.mac1609_4 	ReceivedUnicastPackets 	0
scalar warning_scenario.node[30].nic.mac1609_4 	ReceivedBroadcasts 	9406
scalar warning_scenario.node[30].nic.mac1609_4 	SentPackets 	169
scalar warning_scenario.node[30].nic.mac1609_4 	SNIRLostPackets 	376
scalar warning_scenario.node[30].nic.mac1609_4 	RXTXLostPackets 	0
scalar warning_scenario.node[30].nic.mac1609_4 	TotalLostPackets 	376
scalar warning_scenario.node[30].nic.mac1609_4 	DroppedPacketsInMac 	0
scalar warning_scenario.node[30].nic.mac1609_4 	TooLittleTime 	0
scalar warning_scenario.node[30].nic.mac1609_4 	TimesIntoBackoff 	169
scalar warning_scenario.node[30].nic.mac1609_4 	SlotsBackoff 	230
scalar warning_scenario.node[30].nic.mac1609_4 	NumInternalContention 	0
scalar warning_scenario.node[30].nic.mac1609_4 	totalBusyTime 	1.357857
scalar warning_scenario.node[30].veinsmobility 	startTime 	91
scalar warning_scenario.node[30].veinsmobility 	totalTime 	169
scalar warning_scenario.node[30].veinsmobility 	stopTime 	260.04701655317
scalar warning_scenario.node[30].veinsmobility 	minSpeed 	3.7598747613404
scalar warning_scenario.node[30].veinsmobility 	maxSpeed 	13.998243268474
scalar warning_scenario.node[30].veinsmobility 	totalDistance 	2206.3888077672
scalar warning_scenario.node[30].veinsmobility 	totalCO2Emission 	395.11705164557
scalar warning_scenario.node[31].nic.phy80211p 	busyTime 	0.0079652138740864
scalar warning_scenario.node[31].nic.mac1609_4 	ReceivedUnicastPackets 	0
scalar warning_scenario.node[31].nic.mac1609_4 	ReceivedBroadcasts 	9319
scalar warning_scenario.node[31].nic.mac1609_4 	SentPackets 	166
scalar warning_scenario.node[31].nic.mac1609_4 	SNIRLostPackets 	373
scalar warning_scenario.node[31].nic.mac1609_4 	RXTXLostPackets 	0
scalar warning_scenario.node[31].nic.mac1609_4 	TotalLostPackets 	373
scalar warning_scenario.node[31].nic.mac1609_4 	DroppedPacketsInMac 	0
scalar warning_scenario.node[31].nic.mac1609_4 	TooLittleTime 	0
scalar warning_scenario.node[31].nic.mac1609_4 	TimesIntoBackoff 	166
scalar warning_scenario.node[31].nic.mac1609_4 	SlotsBackoff 	246
scalar warning_scenario.node[31].nic.mac1609_4 	NumInternalContention 	0
scalar warning_scenario.node[31].nic.mac1609_4 	totalBusyTime 	1.345206
scalar warning_scenario.node[31].veinsmobility 	startTime 	94
scalar warning_scenario.node[31].veinsmobility 	totalTime 	166
scalar warning_scenario.node[31].veinsmobility 	stopTime 	260.04701655317
scalar warning_scenario.node[31].veinsmobility 	minSpeed 	3.7908875232339
scalar warning_scenario.node[31].veinsmobility 	maxSpeed 	13.998800867116
scalar warning_scenario.node[31].veinsmobility 	totalDistance 	2163.4925399784
scalar warning_scenario.node[31].veinsmobility 	totalCO2Emission 	388.9106739122
scalar warning_scenario.node[32].nic.phy80211p 	busyTime 	0.0080341979123107
scalar warning_scenario.node[32].nic.mac1609_4 	ReceivedUnicastPackets 	0
scalar warning_scenario.node[32].nic.mac1609_4 	ReceivedBroadcasts 	9219
scalar warning_scenario.node[32].nic.mac1609_4 	SentPackets 	163
scalar warning_scenario.node[32].nic.mac1609_4 	SNIRLostPackets 	380
scalar warning_scenario.node[32].nic.mac1609_4 	RXTXLostPackets 	0
scalar warning_scenario.node[32].nic.mac1609_4 	TotalLostPackets 	380
scalar warning_scenario.node[32].nic.mac1609_4 	DroppedPacketsInMac 	0
scalar warning_scenario.node[32].nic.mac1609_4 	TooLittleTime 	0
scalar warning_scenario.node[32].nic.mac1609_4 	TimesIntoBackoff 	163
scalar warning_scenario.node[32].nic.mac1609_4 	SlotsBackoff 	217
scalar warning_scenario.node[32].nic.mac1609_4 	NumInternalContention 	0
scalar warning_scenario.node[32].nic.mac1609_4 	totalBusyTime 	1.332147
scalar warning_scenario.node[32].veinsmobility 	startTime 	97
scalar warning_scenario.node[32].veinsmobility 	totalTime 	163
scalar warning_scenario.node[32].veinsmobility 	stopTime 	260.04701655317
scalar warning_scenario.node[32].veinsmobility 	minSpeed 	3.6888122114547
scalar warning_scenario.node[32].veinsmobility 	maxSpeed 	13.997771838272
scalar warning_scenario.node[32].veinsmobility 	totalDistance 	2121.7607899688
scalar warning_scenario.node[32].veinsmobility 	totalCO2Emission 	382.51559925585
scalar warning_scenario.node[33].nic.phy80211p 	busyTime 	0.008103218841128
scalar warning_scenario.node[33].nic.mac1609_4 	ReceivedUnicastPackets 	0
scalar warning_scenario.node[33].nic.mac1609_4 	ReceivedBroadcasts 	9085
scalar warning_scenario.node[33].nic.mac1609_4 	SentPackets 	160
scalar warning_scenario.node[33].nic.mac1609_4 	SNIRLostPackets 	419
scalar warning_scenario.node[33].nic.mac1609_4 	RXTXLostPackets 	0
scalar warning_scenario.node[33].nic.mac1609_4 	TotalLostPackets 	419
scalar warning_scenario.node[33].nic.mac1609_4 	DroppedPacketsInMac 	0
scalar warning_scenario.node[33].nic.mac1609_4 	TooLittleTime 	0
scalar warning_scenario.node[33].nic.mac1609_4 	TimesIntoBackoff 	160
scalar warning_scenario.node[33].nic.mac1609_4 	SlotsBackoff 	216
scalar warning_scenario.node[33].nic.mac1609_4 	NumInternalContention 	0
scalar warning_scenario.node[33].nic.mac1609_4 	totalBusyTime 	1.318816
scalar warning_scenario.node[33].veinsmobility 	startTime 	100
scalar warning_scenario.node[33].veinsmobility 	totalTime 	160
scalar warning_scenario.node[33].veinsmobility 	stopTime 	260.04701655317
scalar warning_scenario.node[33].veinsmobility 	minSpeed 	3.5864995140329
scalar warning_scenario.node[33].veinsmobility 	maxSpeed 	13.999459256297
scalar warning_scenario.node[33].veinsmobility 	totalDistance 	2082.4018008103
scalar warning_scenario.node[33].veinsmobility 	totalCO2Emission 	376.95469267702
scalar warning_scenario.node[34].nic.phy80211p 	busyTime 	0.0081722787746526
scalar warning_scenario.node[34].nic.mac1609_4 	ReceivedUnicastPackets 	0
scalar warning_scenario.node[34].nic.mac1609_4 	ReceivedBroadcasts 	8930
scalar warning_scenario.node[34].nic.mac1609_4 	SentPackets 	157
scalar warning_scenario.node[34].nic.mac1609_4 	SNIRLostPackets 	475
scalar warning_scenario.node[34].nic.mac1609_4 	RXTXLostPackets 	0
scalar warning_scenario.node[34].nic.mac1609_4 	TotalLostPackets 	475
scalar warning_scenario.node[34].nic.mac1609_4 	DroppedPacketsInMac 	0
scalar warning_scenario.node[34].nic.mac1609_4 	TooLittleTime 	0
scalar warning_scenario.node[34].nic.mac1609_4 	TimesIntoBackoff 	157
scalar warning_scenario.node[34].nic.mac1609_4 	SlotsBackoff 	211
scalar warning_scenario.node[34].nic.mac1609_4 	NumInternalContention 	0
scalar warning_scenario.node[34].nic.mac1609_4 	totalBusyTime 	1.304941
scalar warning_scenario.node[34].veinsmobility 	startTime 	103
scalar warning_scenario.node[34].veinsmobility 	totalTime 	157
scalar warning_scenario.node[34].veinsmobility 	stopTime 	260.04701655317
scalar warning_scenario.node[34].veinsmobility 	minSpeed 	3.6548283831856
scalar warning_scenario.node[34].veinsmobility 	maxSpeed 	13.999449145973
scalar warning_scenario.node[34].veinsmobility 	totalDistance 	2040.2536692655
scalar warning_scenario.node[34].veinsmobility 	totalCO2Emission 	370.15605413644
scalar warning_scenario.node[35].nic.phy80211p 	busyTime 	0.0082413799916846
scalar warning_scenario.node[35].nic.mac1609_4 	ReceivedUnicastPackets 	0
scalar warning_scenario.node[35].nic.mac1609_4 	ReceivedBroadcasts 	8759
scalar warning_scenario.node[35].nic.mac1609_4 	SentPackets 	154
scalar warning_scenario.node[35].nic.mac1609_4 	SNIRLostPackets 	544
scalar warning_scenario.node[35].nic.mac1609_4 	RXTXLostPackets 	0
scalar warning_scenario.node[35].nic.mac1609_4 	TotalLostPackets 	544
scalar warning_scenario.node[35].nic.mac1609_4 	DroppedPacketsInMac 	0
scalar warning_scenario.node[35].nic.mac1609_4 	TooLittleTime 	0
scalar warning_scenario.node[35].nic.mac1609_4 	TimesIntoBackoff 	154
scalar warning_scenario.node[35].nic.mac1609_4 	SlotsBackoff 	238
scalar warning_scenario.node[35].nic.mac1609_4 	NumInternalContention 	0
scalar warning_scenario.node[35].nic.mac1609_4 	totalBusyTime 	1.290658
scalar warning_scenario.node[35].veinsmobility 	startTime 	106
scalar warning_scenario.node[35].veinsmobility 	totalTime 	154
scalar warning_scenario.node[35].veinsmobility 	stopTime 	260.04701655317
scalar warning_scenario.node[35].veinsmobility 	minSpeed 	3.5539396628002
scalar warning_scenario.node[35].veinsmobility 	maxSpeed 	13.999831876575
scalar warning_scenario.node[35].veinsmobility 	totalDistance 	1998.6241819864
scalar warning_scenario.node[35].veinsmobility 	totalCO2Emission 	364.82918679147
scalar warning_scenario.node[36].nic.phy80211p 	busyTime 	0.0083105249520644
scalar warning_scenario.node[36].nic.mac1609_4 	ReceivedUnicastPackets 	0
scalar warning_scenario.node[36].nic.mac1609_4 	ReceivedBroadcasts 	8586
scalar warning_scenario.node[36].nic.mac1609_4 	SentPackets 	151
scalar warning_scenario.node[36].nic.mac1609_4 	SNIRLostPackets 	612
scalar warning_scenario.node[36].nic.mac1609_4 	RXTXLostPackets 	0
scalar warning_scenario.node[36].nic.mac1609_4 	TotalLostPackets 	612
scalar warning_scenario.node[36].nic.mac1609_4 	DroppedPacketsInMac 	0
scalar warning_scenario.node[36].nic.mac1609_4 	TooLittleTime 	0
scalar warning_scenario.node[36].nic.mac1609_4 	TimesIntoBackoff 	151
scalar warning_scenario.node[36].nic.mac1609_4 	SlotsBackoff 	239
scalar warning_scenario.node[36].nic.mac1609_4 	NumInternalContention 	0
scalar warning_scenario.node[36].nic.mac1609_4 	totalBusyTime 	1.275967
scalar warning_scenario.node[36].veinsmobility 	startTime 	109
scalar warning_scenario.node[36].veinsmobility 	totalTime 	151
scalar warning_scenario.node[36].veinsmobility 	stopTime 	260.04701655317
scalar warning_scenario.node[36].veinsmobility 	minSpeed 	3.6269859127523
scalar warning_scenario.node[36].veinsmobility 	maxSpeed 	13.999738680576
scalar warning_scenario.node[36].veinsmobility 	totalDistance 	1955.897895387
scalar warning_scenario.node[36].veinsmobility 	totalCO2Emission 	358.26605557028
scalar warning_scenario.node[37].nic.phy80211p 	busyTime 	0.0083797163150158
scalar warning_scenario.node[37].nic.mac1609_4 	ReceivedUnicastPackets 	0
scalar warning_scenario.node[37].nic.mac1609_4 	ReceivedBroadcasts 	8368
scalar warning_scenario.node[37].nic.mac1609_4 	SentPackets 	148
scalar warning_scenario.node[37].nic.mac1609_4 	SNIRLostPackets 	722
scalar warning_scenario.node[37].nic.mac1609_4 	RXTXLostPackets 	0
scalar warning_scenario.node[37].nic.mac1609_4 	TotalLostPackets 	722
scalar warning_scenario.node[37].nic.mac1609_4 	DroppedPacketsInMac 	0
scalar warning_scenario.node[37].nic.mac1609_4 	TooLittleTime 	0
scalar warning_scenario.node[37].nic.mac1609_4 	TimesIntoBackoff 	148
scalar warning_scenario.node[37].nic.mac1609_4 	SlotsBackoff 	237
scalar warning_scenario.node[37].nic.mac1609_4 	NumInternalContention 	0
scalar warning_scenario.node[37].nic.mac1609_4 	totalBusyTime 	1.260868
scalar warning_scenario.node[37].veinsmobility 	startTime 	112
scalar warning_scenario.node[37].veinsmobility 	totalTime 	148
scalar warning_scenario.node[37].veinsmobility 	stopTime 	260.04701655317
scalar warning_scenario.node[37].veinsmobility 	minSpeed 	3.4623374010802
scalar warning_scenario.node[37].veinsmobility 	maxSpeed 	13.999434165137
scalar warning_scenario.node[37].veinsmobility 	totalDistance 	1914.4258692367
scalar warning_scenario.node[37].veinsmobility 	totalCO2Emission 	352.32877099072
scalar warning_scenario.node[38].nic.phy80211p 	busyTime 	0.0084489569597648
scalar warning_scenario.node[38].nic.mac1609_4 	ReceivedUnicastPackets 	0
scalar warning_scenario.node[38].nic.mac1609_4 	ReceivedBroadcasts 	8180
scalar warning_scenario.node[38].nic.mac1609_4 	SentPackets 	145
scalar warning_scenario.node[38].nic.mac1609_4 	SNIRLostPackets 	799
scalar warning_scenario.node[38].nic.mac1609_4 	RXTXLostPackets 	0
scalar warning_scenario.node[38].nic.mac1609_4 	TotalLostPackets 	799
scalar warning_scenario.node[38].nic.mac1609_4 	DroppedPacketsInMac 	0
scalar warning_scenario.node[38].nic.mac1609_4 	TooLittleTime 	0
scalar warning_scenario.node[38].nic.mac1609_4 	TimesIntoBackoff 	145
scalar warning_scenario.node[38].nic.mac1609_4 	SlotsBackoff 	214
scalar warning_scenario.node[38].nic.mac1609_4 	NumInternalContention 	0
scalar warning_scenario.node[38].nic.mac1609_4 	totalBusyTime 	1.245361
scalar warning_scenario.node[38].veinsmobility 	startTime 	115
scalar warning_scenario.node[38].veinsmobility 	totalTime 	145
scalar warning_scenario.node[38].veinsmobility 	stopTime 	260.04701655317
scalar warning_scenario.node[38].veinsmobility 	minSpeed 	3.5634130530347
scalar warning_scenario.node[38].veinsmobility 	maxSpeed 	13.9990253613
scalar warning_scenario.node[38].veinsmobility 	totalDistance 	1872.7428892308
scalar warning_scenario.node[38].veinsmobility 	totalCO2Emission 	346.36588163816
scalar warning_scenario.node[39].nic.phy80211p 	busyTime 	0.0085182500087717
scalar warning_scenario.node[39].nic.mac1609_4 	ReceivedUnicastPackets 	0
scalar warning_scenario.node[39].nic.mac1609_4 	ReceivedBroadcasts 	7967
scalar warning_scenario.node[39].nic.mac1609_4 	SentPackets 	142
scalar warning_scenario.node[39].nic.mac1609_4 	SNIRLostPackets 	898
scalar warning_scenario.node[39].nic.mac1609_4 	RXTXLostPackets 	0
scalar warning_scenario.node[39].nic.mac1609_4 	TotalLostPackets 	898
scalar warning_scenario.node[39].nic.mac1609_4 	DroppedPacketsInMac 	0
scalar warning_scenario.node[39].nic.mac1609_4 	TooLittleTime 	0
scalar warning_scenario.node[39].nic.mac1609_4 	TimesIntoBackoff 	142
scalar warning_scenario.node[39].nic.mac1609_4 	SlotsBackoff 	207
scalar warning_scenario.node[39].nic.mac1609_4 	NumInternalContention 	0
scalar warning_scenario.node[39].nic.mac1609_4 	totalBusyTime 	1.229446
scalar warning_scenario.node[39].veinsmobility 	startTime 	118
scalar warning_scenario.node[39].veinsmobility 	totalTime 	142
scalar warning_scenario.node[39].veinsmobility 	stopTime 	260.04701655317
scalar warning_scenario.node[39].veinsmobility 	minSpeed 	3.6741591242235
scalar warning_scenario.node[39].veinsmobility 	maxSpeed 	13.998511635617
scalar warning_scenario.node[39].veinsmobility 	totalDistance 	1830.9685321281
scalar warning_scenario.node[39].veinsmobility 	totalCO2Emission 	340.12257203113
scalar warning_scenario.node[4].nic.phy80211p 	busyTime 	0.0058441345301134
scalar warning_scenario.node[4].nic.mac1609_4 	ReceivedUnicastPackets 	0
scalar warning_scenario.node[4].nic.mac1609_4 	ReceivedBroadcasts 	7761
scalar warning_scenario.node[4].nic.mac1609_4 	SentPackets 	247
scalar warning_scenario.node[4].nic.mac1609_4 	SNIRLostPackets 	2823
scalar warning_scenario.node[4].nic.mac1609_4 	RXTXLostPackets 	0
scalar warning_scenario.node[4].nic.mac1609_4 	TotalLostPackets 	2823
scalar warning_scenario.node[4].nic.mac1609_4 	DroppedPacketsInMac 	0
scalar warning_scenario.node[4].nic.mac1609_4 	TooLittleTime 	0
scalar warning_scenario.node[4].nic.mac1609_4 	TimesIntoBackoff 	247
scalar warning_scenario.node[4].nic.mac1609_4 	SlotsBackoff 	354
scalar warning_scenario.node[4].nic.mac1609_4 	NumInternalContention 	0
scalar warning_scenario.node[4].nic.mac1609_4 	totalBusyTime 	1.477615
scalar warning_scenario.node[4].veinsmobility 	startTime 	13
scalar warning_scenario.node[4].veinsmobility 	totalTime 	247
scalar warning_scenario.node[4].veinsmobility 	stopTime 	260.04701655317
scalar warning_scenario.node[4].veinsmobility 	minSpeed 	3.6023830398415
scalar warning_scenario.node[4].veinsmobility 	maxSpeed 	13.999783729354
scalar warning_scenario.node[4].veinsmobility 	totalDistance 	3289.6234136929
scalar warning_scenario.node[4].veinsmobility 	totalCO2Emission 	553.54784309017
scalar warning_scenario.node[40].nic.phy80211p 	busyTime 	0.0085875988539707
scalar warning_scenario.node[40].nic.mac1609_4 	ReceivedUnicastPackets 	0
scalar warning_scenario.node[40].nic.mac1609_4 	ReceivedBroadcasts 	7757
scalar warning_scenario.node[40].nic.mac1609_4 	SentPackets 	139
scalar warning_scenario.node[40].nic.mac1609_4 	SNIRLostPackets 	991
scalar warning_scenario.node[40].nic.mac1609_4 	RXTXLostPackets 	0
scalar warning_scenario.node[40].nic.mac1609_4 	TotalLostPackets 	991
scalar warning_scenario.node[40].nic.mac1609_4 	DroppedPacketsInMac 	0
scalar warning_scenario.node[40].nic.mac1609_4 	TooLittleTime 	0
scalar warning_scenario.node[40].nic.mac1609_4 	TimesIntoBackoff 	139
scalar warning_scenario.node[40].nic.mac1609_4 	SlotsBackoff 	226
scalar warning_scenario.node[40].nic.mac1609_4 	NumInternalContention 	0
scalar warning_scenario.node[40].nic.mac1609_4 	totalBusyTime 	1.213123
scalar warning_scenario.node[40].veinsmobility 	startTime 	121
scalar warning_scenario.node[40].veinsmobility 	totalTime 	139
scalar warning_scenario.node[40].veinsmobility 	stopTime 	260.04701655317
scalar warning_scenario.node[40].veinsmobility 	minSpeed 	3.5979756342682
scalar warning_scenario.node[40].veinsmobility 	maxSpeed 	13.999646524282
scalar warning_scenario.node[40].veinsmobility 	totalDistance 	1789.6589021314
scalar warning_scenario.node[40].veinsmobility 	totalCO2Emission 	335.33100704204
scalar warning_scenario.node[41].nic.phy80211p 	busyTime 	0.0086570071864807
scalar warning_scenario.node[41].nic.mac1609_4 	ReceivedUnicastPackets 	0
scalar warning_scenario.node[41].nic.mac1609_4 	ReceivedBroadcasts 	7569
scalar warning_scenario.node[41].nic.mac1609_4 	SentPackets 	136
scalar warning_scenario.node[41].nic.mac1609_4 	SNIRLostPackets 	1059
scalar warning_scenario.node[41].nic.mac1609_4 	RXTXLostPackets 	0
scalar warning_scenario.node[41].nic.mac1609_4 	TotalLostPackets 	1059
scalar warning_scenario.node[41].nic.mac1609_4 	DroppedPacketsInMac 	0
scalar warning_scenario.node[41].nic.mac1609_4 	TooLittleTime 	0
scalar warning_scenario.node[41].nic.mac1609_4 	TimesIntoBackoff 	136
scalar warning_scenario.node[41].nic.mac1609_4 	SlotsBackoff 	191
scalar warning_scenario.node[41].nic.mac1609_4 	NumInternalContention 	0
scalar warning_scenario.node[41].nic.mac1609_4 	totalBusyTime 	1.196392
scalar warning_scenario.node[41].veinsmobility 	startTime 	124
scalar warning_scenario.node[41].veinsmobility 	totalTime 	136
scalar warning_scenario.node[41].veinsmobility 	stopTime 	260.04701655317
scalar warning_scenario.node[41].veinsmobility 	minSpeed 	3.7867554882077
scalar warning_scenario.node[41].veinsmobility 	maxSpeed 	13.997912408661
scalar warning_scenario.node[41].veinsmobility 	totalDistance 	1745.5646240134
scalar warning_scenario.node[41].veinsmobility 	totalCO2Emission 	328.84477479798
scalar warning_scenario.node[42].nic.phy80211p 	busyTime 	0.0087264790303365
scalar warning_scenario.node[42].nic.mac1609_4 	ReceivedUnicastPackets 	0
scalar warning_scenario.node[42].nic.mac1609_4 	ReceivedBroadcasts 	7380
scalar warning_scenario.node[42].nic.mac1609_4 	SentPackets 	133
scalar warning_scenario.node[42].nic.mac1609_4 	SNIRLostPackets 	1125
scalar warning_scenario.node[42].nic.mac1609_4 	RXTXLostPackets 	0
scalar warning_scenario.node[42].nic.mac1609_4 	TotalLostPackets 	1125
scalar warning_scenario.node[42].nic.mac1609_4 	DroppedPacketsInMac 	0
scalar warning_scenario.node[42].nic.mac1609_4 	TooLittleTime 	0
scalar warning_scenario.node[42].nic.mac1609_4 	TimesIntoBackoff 	133
scalar warning_scenario.node[42].nic.mac1609_4 	SlotsBackoff 	203
scalar warning_scenario.node[42].nic.mac1609_4 	NumInternalContention 	0
scalar warning_scenario.node[42].nic.mac1609_4 	totalBusyTime 	1.179253
scalar warning_scenario.node[42].veinsmobility 	startTime 	127
scalar warning_scenario.node[42].veinsmobility 	totalTime 	133
scalar warning_scenario.node[42].veinsmobility 	stopTime 	260.04701655317
scalar warning_scenario.node[42].veinsmobility 	minSpeed 	3.8189112932023
scalar warning_scenario.node[42].veinsmobility 	maxSpeed 	13.99862067058
scalar warning_scenario.node[42].veinsmobility 	totalDistance 	1703.5423388547
scalar warning_scenario.node[42].veinsmobility 	totalCO2Emission 	321.56985237585
scalar warning_scenario.node[43].nic.phy80211p 	busyTime 	0.0087960187808876
scalar warning_scenario.node[43].nic.mac1609_4 	ReceivedUnicastPackets 	0
scalar warning_scenario.node[43].nic.mac1609_4 	ReceivedBroadcasts 	7164
scalar warning_scenario.node[43].nic.mac1609_4 	SentPackets 	130
scalar warning_scenario.node[43].nic.mac1609_4 	SNIRLostPackets 	1215
scalar warning_scenario.node[43].nic.mac1609_4 	RXTXLostPackets 	0
scalar warning_scenario.node[43].nic.mac1609_4 	TotalLostPackets 	1215
scalar warning_scenario.node[43].nic.mac1609_4 	DroppedPacketsInMac 	0
scalar warning_scenario.node[43].nic.mac1609_4 	TooLittleTime 	0
scalar warning_scenario.node[43].nic.mac1609_4 	TimesIntoBackoff 	130
scalar warning_scenario.node[43].nic.mac1609_4 	SlotsBackoff 	184
scalar warning_scenario.node[43].nic.mac1609_4 	NumInternalContention 	0
scalar warning_scenario.node[43].nic.mac1609_4 	totalBusyTime 	1.161706
scalar warning_scenario.node[43].veinsmobility 	startTime 	130
scalar warning_scenario.node[43].veinsmobility 	totalTime 	130
scalar warning_scenario.node[43].veinsmobility 	stopTime 	260.04701655317
scalar warning_scenario.node[43].veinsmobility 	minSpeed 	3.7339598430224
scalar warning_scenario.node[43].veinsmobility 	maxSpeed 	13.994742217991
scalar warning_scenario.node[43].veinsmobility 	totalDistance 	1661.9013087109
scalar warning_scenario.node[43].veinsmobility 	totalCO2Emission 	315.8023743619
scalar warning_scenario.node[44].nic.phy80211p 	busyTime 	0.0088656312486386
scalar warning_scenario.node[44].nic.mac1609_4 	ReceivedUnicastPackets 	0
scalar warning_scenario.node[44].nic.mac1609_4 	ReceivedBroadcasts 	6972
scalar warning_scenario.node[44].nic.mac1609_4 	SentPackets 	127
scalar warning_scenario.node[44].nic.mac1609_4 	SNIRLostPackets 	1278
scalar warning_scenario.node[44].nic.mac1609_4 	RXTXLostPackets 	0
scalar warning_scenario.node[44].nic.mac1609_4 	TotalLostPackets 	1278
scalar warning_scenario.node[44].nic.mac1609_4 	DroppedPacketsInMac 	0
scalar warning_scenario.node[44].nic.mac1609_4 	TooLittleTime 	0
scalar warning_scenario.node[44].nic.mac1609_4 	TimesIntoBackoff 	127
scalar warning_scenario.node[44].nic.mac1609_4 	SlotsBackoff 	188
scalar warning_scenario.node[44].nic.mac1609_4 	NumInternalContention 	0
scalar warning_scenario.node[44].nic.mac1609_4 	totalBusyTime 	1.143751
scalar warning_scenario.node[44].veinsmobility 	startTime 	133
scalar warning_scenario.node[44].veinsmobility 	totalTime 	127
scalar warning_scenario.node[44].veinsmobility 	stopTime 	260.04701655317
scalar warning_scenario.node[44].veinsmobility 	minSpeed 	3.7056687730073
scalar warning_scenario.node[44].veinsmobility 	maxSpeed 	13.999131367134
scalar warning_scenario.node[44].veinsmobility 	totalDistance 	1621.0610307145
scalar warning_scenario.node[44].veinsmobility 	totalCO2Emission 	309.55537596123
scalar warning_scenario.node[45].nic.phy80211p 	busyTime 	0.0089353217094505
scalar warning_scenario.node[45].nic.mac1609_4 	ReceivedUnicastPackets 	0
scalar warning_scenario.node[45].nic.mac1609_4 	ReceivedBroadcasts 	6795
scalar warning_scenario.node[45].nic.mac1609_4 	SentPackets 	124
scalar warning_scenario.node[45].nic.mac1609_4 	SNIRLostPackets 	1323
scalar warning_scenario.node[45].nic.mac1609_4 	RXTXLostPackets 	0
scalar warning_scenario.node[45].nic.mac1609_4 	TotalLostPackets 	1323
scalar warning_scenario.node[45].nic.mac1609_4 	DroppedPacketsInMac 	0
scalar warning_scenario.node[45].nic.mac1609_4 	TooLittleTime 	0
scalar warning_scenario.node[45].nic.mac1609_4 	TimesIntoBackoff 	124
scalar warning_scenario.node[45].nic.mac1609_4 	SlotsBackoff 	192
scalar warning_scenario.node[45].nic.mac1609_4 	NumInternalContention 	0
scalar warning_scenario.node[45].nic.mac1609_4 	totalBusyTime 	1.125388
scalar warning_scenario.node[45].veinsmobility 	startTime 	136
scalar warning_scenario.node[45].veinsmobility 	totalTime 	124
scalar warning_scenario.node[45].veinsmobility 	stopTime 	260.04701655317
scalar warning_scenario.node[45].veinsmobility 	minSpeed 	3.7754760386588
scalar warning_scenario.node[45].veinsmobility 	maxSpeed 	13.998852061748
scalar warning_scenario.node[45].veinsmobility 	totalDistance 	1577.3948597644
scalar warning_scenario.node[45].veinsmobility 	totalCO2Emission 	303.89862902923
scalar warning_scenario.node[46].nic.phy80211p 	busyTime 	0.0090050959622066
scalar warning_scenario.node[46].nic.mac1609_4 	ReceivedUnicastPackets 	0
scalar warning_scenario.node[46].nic.mac1609_4 	ReceivedBroadcasts 	6604
scalar warning_scenario.node[46].nic.mac1609_4 	SentPackets 	121
scalar warning_scenario.node[46].nic.mac1609_4 	SNIRLostPackets 	1379
scalar warning_scenario.node[46].nic.mac1609_4 	RXTXLostPackets 	0
scalar warning_scenario.node[46].nic.mac1609_4 	TotalLostPackets 	1379
scalar warning_scenario.node[46].nic.mac1609_4 	DroppedPacketsInMac 	0
scalar warning_scenario.node[46].nic.mac1609_4 	TooLittleTime 	0
scalar warning_scenario.node[46].nic.mac1609_4 	TimesIntoBackoff 	121
scalar warning_scenario.node[46].nic.mac1609_4 	SlotsBackoff 	171
scalar warning_scenario.node[46].nic.mac1609_4 	NumInternalContention 	0
scalar warning_scenario.node[46].nic.mac1609_4 	totalBusyTime 	1.106617
scalar warning_scenario.node[46].veinsmobility 	startTime 	139
scalar warning_scenario.node[46].veinsmobility 	totalTime 	121
scalar warning_scenario.node[46].veinsmobility 	stopTime 	260.04701655317
scalar warning_scenario.node[46].veinsmobility 	minSpeed 	3.5556018329323
scalar warning_scenario.node[46].veinsmobility 	maxSpeed 	13.998646576614
scalar warning_scenario.node[46].veinsmobility 	totalDistance 	1537.9483514407
scalar warning_scenario.node[46].veinsmobility 	totalCO2Emission 	297.19730946007
scalar warning_scenario.node[47].nic.phy80211p 	busyTime 	0.0090749603952728
scalar warning_scenario.node[47].nic.mac1609_4 	ReceivedUnicastPackets 	0
scalar warning_scenario.node[47].nic.mac1609_4 	ReceivedBroadcasts 	6426
scalar warning_scenario.node[47].nic.mac1609_4 	SentPackets 	118
scalar warning_scenario.node[47].nic.mac1609_4 	SNIRLostPackets 	1419
scalar warning_scenario.node[47].nic.mac1609_4 	RXTXLostPackets 	0
scalar warning_scenario.node[47].nic.mac1609_4 	TotalLostPackets 	1419
scalar warning_scenario.node[47].nic.mac1609_4 	DroppedPacketsInMac 	0
scalar warning_scenario.node[47].nic.mac1609_4 	TooLittleTime 	0
scalar warning_scenario.node[47].nic.mac1609_4 	TimesIntoBackoff 	118
scalar warning_scenario.node[47].nic.mac1609_4 	SlotsBackoff 	179
scalar warning_scenario.node[47].nic.mac1609_4 	NumInternalContention 	0
scalar warning_scenario.node[47].nic.mac1609_4 	totalBusyTime 	1.087438
scalar warning_scenario.node[47].veinsmobility 	startTime 	142
scalar warning_scenario.node[47].veinsmobility 	totalTime 	118
scalar warning_scenario.node[47].veinsmobility 	stopTime 	260.04701655317
scalar warning_scenario.node[47].veinsmobility 	minSpeed 	3.6965353784043
scalar warning_scenario.node[47].veinsmobility 	maxSpeed 	13.998774502189
scalar warning_scenario.node[47].veinsmobility 	totalDistance 	1494.7908634963
scalar warning_scenario.node[47].veinsmobility 	totalCO2Emission 	290.78339222947
scalar warning_scenario.node[48].nic.phy80211p 	busyTime 	0.009144922063354
scalar warning_scenario.node[48].nic.mac1609_4 	ReceivedUnicastPackets 	0
scalar warning_scenario.node[48].nic.mac1609_4 	ReceivedBroadcasts 	6224
scalar warning_scenario.node[48].nic.mac1609_4 	SentPackets 	115
scalar warning_scenario.node[48].nic.mac1609_4 	SNIRLostPackets 	1480
scalar warning_scenario.node[48].nic.mac1609_4 	RXTXLostPackets 	0
scalar warning_scenario.node[48].nic.mac1609_4 	TotalLostPackets 	1480
scalar warning_scenario.node[48].nic.mac1609_4 	DroppedPacketsInMac 	0
scalar warning_scenario.node[48].nic.mac1609_4 	TooLittleTime 	0
scalar warning_scenario.node[48].nic.mac1609_4 	TimesIntoBackoff 	115
scalar warning_scenario.node[48].nic.mac1609_4 	SlotsBackoff 	176
scalar warning_scenario.node[48].nic.mac1609_4 	NumInternalContention 	0
scalar warning_scenario.node[48].nic.mac1609_4 	totalBusyTime 	1.067851
scalar warning_scenario.node[48].veinsmobility 	startTime 	145
scalar warning_scenario.node[48].veinsmobility 	totalTime 	115
scalar warning_scenario.node[48].veinsmobility 	stopTime 	260.04701655317
scalar warning_scenario.node[48].veinsmobility 	minSpeed 	3.7811954258394
scalar warning_scenario.node[48].veinsmobility 	maxSpeed 	13.994928789509
scalar warning_scenario.node[48].veinsmobility 	totalDistance 	1453.1958961442
scalar warning_scenario.node[48].veinsmobility 	totalCO2Emission 	285.41541181465
scalar warning_scenario.node[49].nic.phy80211p 	busyTime 	0.0092149887766997
scalar warning_scenario.node[49].nic.mac1609_4 	ReceivedUnicastPackets 	0
scalar warning_scenario.node[49].nic.mac1609_4 	ReceivedBroadcasts 	6058
scalar warning_scenario.node[49].nic.mac1609_4 	SentPackets 	112
scalar warning_scenario.node[49].nic.mac1609_4 	SNIRLostPackets 	1502
scalar warning_scenario.node[49].nic.mac1609_4 	RXTXLostPackets 	0
scalar warning_scenario.node[49].nic.mac1609_4 	TotalLostPackets 	1502
scalar warning_scenario.node[49].nic.mac1609_4 	DroppedPacketsInMac 	0
scalar warning_scenario.node[49].nic.mac1609_4 	TooLittleTime 	0
scalar warning_scenario.node[49].nic.mac1609_4 	TimesIntoBackoff 	112
scalar warning_scenario.node[49].nic.mac1609_4 	SlotsBackoff 	168
scalar warning_scenario.node[49].nic.mac1609_4 	NumInternalContention 	0
scalar warning_scenario.node[49].nic.mac1609_4 	totalBusyTime 	1.047856
scalar warning_scenario.node[49].veinsmobility 	startTime 	148
scalar warning_scenario.node[49].veinsmobility 	totalTime 	112
scalar warning_scenario.node[49].veinsmobility 	stopTime 	260.04701655317
scalar warning_scenario.node[49].veinsmobility 	minSpeed 	3.8789196924617
scalar warning_scenario.node[49].veinsmobility 	maxSpeed 	13.999205088199
scalar warning_scenario.node[49].veinsmobility 	totalDistance 	1410.7647841924
scalar warning_scenario.node[49].veinsmobility 	totalCO2Emission 	278.42951120062
scalar warning_scenario.node[5].nic.phy80211p 	busyTime 	0.0059460673623262
scalar warning_scenario.node[5].nic.mac1609_4 	ReceivedUnicastPackets 	0
scalar warning_scenario.node[5].nic.mac1609_4 	ReceivedBroadcasts 	7886
scalar warning_scenario.node[5].nic.mac1609_4 	SentPackets 	244
scalar warning_scenario.node[5].nic.mac1609_4 	SNIRLostPackets 	2751
scalar warning_scenario.node[5].nic.mac1609_4 	RXTXLostPackets 	0
scalar warning_scenario.node[5].nic.mac1609_4 	TotalLostPackets 	2751
scalar warning_scenario.node[5].nic.mac1609_4 	DroppedPacketsInMac 	0
scalar warning_scenario.node[5].nic.mac1609_4 	TooLittleTime 	0
scalar warning_scenario.node[5].nic.mac1609_4 	TimesIntoBackoff 	244
scalar warning_scenario.node[5].nic.mac1609_4 	SlotsBackoff 	356
scalar warning_scenario.node[5].nic.mac1609_4 	NumInternalContention 	0
scalar warning_scenario.node[5].nic.mac1609_4 	totalBusyTime 	1.484412
scalar warning_scenario.node[5].veinsmobility 	startTime 	16
scalar warning_scenario.node[5].veinsmobility 	totalTime 	244
scalar warning_scenario.node[5].veinsmobility 	stopTime 	260.04701655317
scalar warning_scenario.node[5].veinsmobility 	minSpeed 	3.7782526338557
scalar warning_scenario.node[5].veinsmobility 	maxSpeed 	13.999639776004
scalar warning_scenario.node[5].veinsmobility 	totalDistance 	3246.9588506454
scalar warning_scenario.node[5].veinsmobility 	totalCO2Emission 	546.89195350778
scalar warning_scenario.node[50].nic.phy80211p 	busyTime 	0.0092851692050325
scalar warning_scenario.node[50].nic.mac1609_4 	ReceivedUnicastPackets 	0
scalar warning_scenario.node[50].nic.mac1609_4 	ReceivedBroadcasts 	5866
scalar warning_scenario.node[50].nic.mac1609_4 	SentPackets 	109
scalar warning_scenario.node[50].nic.mac1609_4 	SNIRLostPackets 	1547
scalar warning_scenario.node[50].nic.mac1609_4 	RXTXLostPackets 	0
scalar warning_scenario.node[50].nic.mac1609_4 	TotalLostPackets 	1547
scalar warning_scenario.node[50].nic.mac1609_4 	DroppedPacketsInMac 	0
scalar warning_scenario.node[50].nic.mac1609_4 	TooLittleTime 	0
scalar warning_scenario.node[50].nic.mac1609_4 	TimesIntoBackoff 	109
scalar warning_scenario.node[50].nic.mac1609_4 	SlotsBackoff 	162
scalar warning_scenario.node[50].nic.mac1609_4 	NumInternalContention 	0
scalar warning_scenario.node[50].nic.mac1609_4 	totalBusyTime 	1.027453
scalar warning_scenario.node[50].veinsmobility 	startTime 	151
scalar warning_scenario.node[50].veinsmobility 	totalTime 	109
scalar warning_scenario.node[50].veinsmobility 	stopTime 	260.04701655317
scalar warning_scenario.node[50].veinsmobility 	minSpeed 	3.7746905186925
scalar warning_scenario.node[50].veinsmobility 	maxSpeed 	13.999307238436
scalar warning_scenario.node[50].veinsmobility 	totalDistance 	1368.8492624954
scalar warning_scenario.node[50].veinsmobility 	totalCO2Emission 	273.06843835203
scalar warning_scenario.node[51].nic.phy80211p 	busyTime 	0.0093554729991177
scalar warning_scenario.node[51].nic.mac1609_4 	ReceivedUnicastPackets 	0
scalar warning_scenario.node[51].nic.mac1609_4 	ReceivedBroadcasts 	5687
scalar warning_scenario.node[51].nic.mac1609_4 	SentPackets 	106
scalar warning_scenario.node[51].nic.mac1609_4 	SNIRLostPackets 	1576
scalar warning_scenario.node[51].nic.mac1609_4 	RXTXLostPackets 	0
scalar warning_scenario.node[51].nic.mac1609_4 	TotalLostPackets 	1576
scalar warning_scenario.node[51].nic.mac1609_4 	DroppedPacketsInMac 	0
scalar warning_scenario.node[51].nic.mac1609_4 	TooLittleTime 	0
scalar warning_scenario.node[51].nic.mac1609_4 	TimesIntoBackoff 	106
scalar warning_scenario.node[51].nic.mac1609_4 	SlotsBackoff 	172
scalar warning_scenario.node[51].nic.mac1609_4 	NumInternalContention 	0
scalar warning_scenario.node[51].nic.mac1609_4 	totalBusyTime 	1.006642
scalar warning_scenario.node[51].veinsmobility 	startTime 	154
scalar warning_scenario.node[51].veinsmobility 	totalTime 	106
scalar warning_scenario.node[51].veinsmobility 	stopTime 	260.04701655317
scalar warning_scenario.node[51].veinsmobility 	minSpeed 	3.5928958691317
scalar warning_scenario.node[51].veinsmobility 	maxSpeed 	13.998689010057
scalar warning_scenario.node[51].veinsmobility 	totalDistance 	1329.2836524034
scalar warning_scenario.node[51].veinsmobility 	totalCO2Emission 	267.32109655212
scalar warning_scenario.node[52].nic.phy80211p 	busyTime 	0.0094166724322337
scalar warning_scenario.node[52].nic.mac1609_4 	ReceivedUnicastPackets 	0
scalar warning_scenario.node[52].nic.mac1609_4 	ReceivedBroadcasts 	5497
scalar warning_scenario.node[52].nic.mac1609_4 	SentPackets 	103
scalar warning_scenario.node[52].nic.mac1609_4 	SNIRLostPackets 	1606
scalar warning_scenario.node[52].nic.mac1609_4 	RXTXLostPackets 	0
scalar warning_scenario.node[52].nic.mac1609_4 	TotalLostPackets 	1606
scalar warning_scenario.node[52].nic.mac1609_4 	DroppedPacketsInMac 	0
scalar warning_scenario.node[52].nic.mac1609_4 	TooLittleTime 	0
scalar warning_scenario.node[52].nic.mac1609_4 	TimesIntoBackoff 	103
scalar warning_scenario.node[52].nic.mac1609_4 	SlotsBackoff 	148
scalar warning_scenario.node[52].nic.mac1609_4 	NumInternalContention 	0
scalar warning_scenario.node[52].nic.mac1609_4 	totalBusyTime 	0.984471
scalar warning_scenario.node[52].veinsmobility 	startTime 	157
scalar warning_scenario.node[52].veinsmobility 	totalTime 	103
scalar warning_scenario.node[52].veinsmobility 	stopTime 	260.04701655317
scalar warning_scenario.node[52].veinsmobility 	minSpeed 	3.7109670488505
scalar warning_scenario.node[52].veinsmobility 	maxSpeed 	13.998262994301
scalar warning_scenario.node[52].veinsmobility 	totalDistance 	1285.4579938728
scalar warning_scenario.node[52].veinsmobility 	totalCO2Emission 	260.88364176023
scalar warning_scenario.node[53].nic.phy80211p 	busyTime 	0.0094761846246191
scalar warning_scenario.node[53].nic.mac1609_4 	ReceivedUnicastPackets 	0
scalar warning_scenario.node[53].nic.mac1609_4 	ReceivedBroadcasts 	5318
scalar warning_scenario.node[53].nic.mac1609_4 	SentPackets 	100
scalar warning_scenario.node[53].nic.mac1609_4 	SNIRLostPackets 	1622
scalar warning_scenario.node[53].nic.mac1609_4 	RXTXLostPackets 	0
scalar warning_scenario.node[53].nic.mac1609_4 	TotalLostPackets 	1622
scalar warning_scenario.node[53].nic.mac1609_4 	DroppedPacketsInMac 	0
scalar warning_scenario.node[53].nic.mac1609_4 	TooLittleTime 	0
scalar warning_scenario.node[53].nic.mac1609_4 	TimesIntoBackoff 	100
scalar warning_scenario.node[53].nic.mac1609_4 	SlotsBackoff 	153
scalar warning_scenario.node[53].nic.mac1609_4 	NumInternalContention 	0
scalar warning_scenario.node[53].nic.mac1609_4 	totalBusyTime 	0.961764
scalar warning_scenario.node[53].veinsmobility 	startTime 	160
scalar warning_scenario.node[53].veinsmobility 	totalTime 	100
scalar warning_scenario.node[53].veinsmobility 	stopTime 	260.04701655317
scalar warning_scenario.node[53].veinsmobility 	minSpeed 	3.7887984218289
scalar warning_scenario.node[53].veinsmobility 	maxSpeed 	13.996314814147
scalar warning_scenario.node[53].veinsmobility 	totalDistance 	1243.9865456155
scalar warning_scenario.node[53].veinsmobility 	totalCO2Emission 	255.09180097979
scalar warning_scenario.node[54].nic.phy80211p 	busyTime 	0.0095253623741611
scalar warning_scenario.node[54].nic.mac1609_4 	ReceivedUnicastPackets 	0
scalar warning_scenario.node[54].nic.mac1609_4 	ReceivedBroadcasts 	5146
scalar warning_scenario.node[54].nic.mac1609_4 	SentPackets 	97
scalar warning_scenario.node[54].nic.mac1609_4 	SNIRLostPackets 	1621
scalar warning_scenario.node[54].nic.mac1609_4 	RXTXLostPackets 	0
scalar warning_scenario.node[54].nic.mac1609_4 	TotalLostPackets 	1621
scalar warning_scenario.node[54].nic.mac1609_4 	DroppedPacketsInMac 	0
scalar warning_scenario.node[54].nic.mac1609_4 	TooLittleTime 	0
scalar warning_scenario.node[54].nic.mac1609_4 	TimesIntoBackoff 	97
scalar warning_scenario.node[54].nic.mac1609_4 	SlotsBackoff 	138
scalar warning_scenario.node[54].nic.mac1609_4 	NumInternalContention 	0
scalar warning_scenario.node[54].nic.mac1609_4 	totalBusyTime 	0.937697
scalar warning_scenario.node[54].veinsmobility 	startTime 	163
scalar warning_scenario.node[54].veinsmobility 	totalTime 	97
scalar warning_scenario.node[54].veinsmobility 	stopTime 	260.04701655317
scalar warning_scenario.node[54].veinsmobility 	minSpeed 	3.7643853636158
scalar warning_scenario.node[54].veinsmobility 	maxSpeed 	13.998241657703
scalar warning_scenario.node[54].veinsmobility 	totalDistance 	1202.3222313765
scalar warning_scenario.node[54].veinsmobility 	totalCO2Emission 	248.92985543213
scalar warning_scenario.node[55].nic.phy80211p 	busyTime 	0.0095690010484423
scalar warning_scenario.node[55].nic.mac1609_4 	ReceivedUnicastPackets 	0
scalar warning_scenario.node[55].nic.mac1609_4 	ReceivedBroadcasts 	4956
scalar warning_scenario.node[55].nic.mac1609_4 	SentPackets 	94
scalar warning_scenario.node[55].nic.mac1609_4 	SNIRLostPackets 	1632
scalar warning_scenario.node[55].nic.mac1609_4 	RXTXLostPackets 	0
scalar warning_scenario.node[55].nic.mac1609_4 	TotalLostPackets 	1632
scalar warning_scenario.node[55].nic.mac1609_4 	DroppedPacketsInMac 	0
scalar warning_scenario.node[55].nic.mac1609_4 	TooLittleTime 	0
scalar warning_scenario.node[55].nic.mac1609_4 	TimesIntoBackoff 	94
scalar warning_scenario.node[55].nic.mac1609_4 	SlotsBackoff 	143
scalar warning_scenario.node[55].nic.mac1609_4 	NumInternalContention 	0
scalar warning_scenario.node[55].nic.mac1609_4 	totalBusyTime 	0.912814
scalar warning_scenario.node[55].veinsmobility 	startTime 	166
scalar warning_scenario.node[55].veinsmobility 	totalTime 	94
scalar warning_scenario.node[55].veinsmobility 	stopTime 	260.04701655317
scalar warning_scenario.node[55].veinsmobility 	minSpeed 	3.7476615482111
scalar warning_scenario.node[55].veinsmobility 	maxSpeed 	13.999926886656
scalar warning_scenario.node[55].veinsmobility 	totalDistance 	1160.6508526038
scalar warning_scenario.node[55].veinsmobility 	totalCO2Emission 	242.69406946267
scalar warning_scenario.node[56].nic.phy80211p 	busyTime 	0.0096080468434601
scalar warning_scenario.node[56].nic.mac1609_4 	ReceivedUnicastPackets 	0
scalar warning_scenario.node[56].nic.mac1609_4 	ReceivedBroadcasts 	4783
scalar warning_scenario.node[56].nic.mac1609_4 	SentPackets 	91
scalar warning_scenario.node[56].nic.mac1609_4 	SNIRLostPackets 	1621
scalar warning_scenario.node[56].nic.mac1609_4 	RXTXLostPackets 	0
scalar warning_scenario.node[56].nic.mac1609_4 	TotalLostPackets 	1621
scalar warning_scenario.node[56].nic.mac1609_4 	DroppedPacketsInMac 	0
scalar warning_scenario.node[56].nic.mac1609_4 	TooLittleTime 	0
scalar warning_scenario.node[56].nic.mac1609_4 	TimesIntoBackoff 	91
scalar warning_scenario.node[56].nic.mac1609_4 	SlotsBackoff 	115
scalar warning_scenario.node[56].nic.mac1609_4 	NumInternalContention 	0
scalar warning_scenario.node[56].nic.mac1609_4 	totalBusyTime 	0.887251
scalar warning_scenario.node[56].veinsmobility 	startTime 	169
scalar warning_scenario.node[56].veinsmobility 	totalTime 	91
scalar warning_scenario.node[56].veinsmobility 	stopTime 	260.04701655317
scalar warning_scenario.node[56].veinsmobility 	minSpeed 	3.7808335222063
scalar warning_scenario.node[56].veinsmobility 	maxSpeed 	13.997881858761
scalar warning_scenario.node[56].veinsmobility 	totalDistance 	1118.8785960074
scalar warning_scenario.node[56].veinsmobility 	totalCO2Emission 	236.62985086311
scalar warning_scenario.node[57].nic.phy80211p 	busyTime 	0.0096420302837573
scalar warning_scenario.node[57].nic.mac1609_4 	ReceivedUnicastPackets 	0
scalar warning_scenario.node[57].nic.mac1609_4 	ReceivedBroadcasts 	4598
scalar warning_scenario.node[57].nic.mac1609_4 	SentPackets 	88
scalar warning_scenario.node[57].nic.mac1609_4 	SNIRLostPackets 	1617
scalar warning_scenario.node[57].nic.mac1609_4 	RXTXLostPackets 	0
scalar warning_scenario.node[57].nic.mac1609_4 	TotalLostPackets 	1617
scalar warning_scenario.node[57].nic.mac1609_4 	DroppedPacketsInMac 	0
scalar warning_scenario.node[57].nic.mac1609_4 	TooLittleTime 	0
scalar warning_scenario.node[57].nic.mac1609_4 	TimesIntoBackoff 	88
scalar warning_scenario.node[57].nic.mac1609_4 	SlotsBackoff 	113
scalar warning_scenario.node[57].nic.mac1609_4 	NumInternalContention 	0
scalar warning_scenario.node[57].nic.mac1609_4 	totalBusyTime 	0.861008
scalar warning_scenario.node[57].veinsmobility 	startTime 	172
scalar warning_scenario.node[57].veinsmobility 	totalTime 	88
scalar warning_scenario.node[57].veinsmobility 	stopTime 	260.04701655317
scalar warning_scenario.node[57].veinsmobility 	minSpeed 	3.5847093013648
scalar warning_scenario.node[57].veinsmobility 	maxSpeed 	13.997914123796
scalar warning_scenario.node[57].veinsmobility 	totalDistance 	1077.0843381562
scalar warning_scenario.node[57].veinsmobility 	totalCO2Emission 	230.40770255633
scalar warning_scenario.node[58].nic.phy80211p 	busyTime 	0.0096704156516292
scalar warning_scenario.node[58].nic.mac1609_4 	ReceivedUnicastPackets 	0
scalar warning_scenario.node[58].nic.mac1609_4 	ReceivedBroadcasts 	4442
scalar warning_scenario.node[58].nic.mac1609_4 	SentPackets 	85
scalar warning_scenario.node[58].nic.mac1609_4 	SNIRLostPackets 	1579
scalar warning_scenario.node[58].nic.mac1609_4 	RXTXLostPackets 	0
scalar warning_scenario.node[58].nic.mac1609_4 	TotalLostPackets 	1579
scalar warning_scenario.node[58].nic.mac1609_4 	DroppedPacketsInMac 	0
scalar warning_scenario.node[58].nic.mac1609_4 	TooLittleTime 	0
scalar warning_scenario.node[58].nic.mac1609_4 	TimesIntoBackoff 	85
scalar warning_scenario.node[58].nic.mac1609_4 	SlotsBackoff 	120
scalar warning_scenario.node[58].nic.mac1609_4 	NumInternalContention 	0
scalar warning_scenario.node[58].nic.mac1609_4 	totalBusyTime 	0.834085
scalar warning_scenario.node[58].veinsmobility 	startTime 	175
scalar warning_scenario.node[58].veinsmobility 	totalTime 	85
scalar warning_scenario.node[58].veinsmobility 	stopTime 	260.04701655317
scalar warning_scenario.node[58].veinsmobility 	minSpeed 	3.6534057483663
scalar warning_scenario.node[58].veinsmobility 	maxSpeed 	13.998995610839
scalar warning_scenario.node[58].veinsmobility 	totalDistance 	1034.8011776187
scalar warning_scenario.node[58].veinsmobility 	totalCO2Emission 	224.29617506165
scalar warning_scenario.node[59].nic.phy80211p 	busyTime 	0.0096909312904128
scalar warning_scenario.node[59].nic.mac1609_4 	ReceivedUnicastPackets 	0
scalar warning_scenario.node[59].nic.mac1609_4 	ReceivedBroadcasts 	4260
scalar warning_scenario.node[59].nic.mac1609_4 	SentPackets 	82
scalar warning_scenario.node[59].nic.mac1609_4 	SNIRLostPackets 	1561
scalar warning_scenario.node[59].nic.mac1609_4 	RXTXLostPackets 	0
scalar warning_scenario.node[59].nic.mac1609_4 	TotalLostPackets 	1561
scalar warning_scenario.node[59].nic.mac1609_4 	DroppedPacketsInMac 	0
scalar warning_scenario.node[59].nic.mac1609_4 	TooLittleTime 	0
scalar warning_scenario.node[59].nic.mac1609_4 	TimesIntoBackoff 	82
scalar warning_scenario.node[59].nic.mac1609_4 	SlotsBackoff 	125
scalar warning_scenario.node[59].nic.mac1609_4 	NumInternalContention 	0
scalar warning_scenario.node[59].nic.mac1609_4 	totalBusyTime 	0.806346
scalar warning_scenario.node[59].veinsmobility 	startTime 	178
scalar warning_scenario.node[59].veinsmobility 	totalTime 	82
scalar warning_scenario.node[59].veinsmobility 	stopTime 	260.04701655317
scalar warning_scenario.node[59].veinsmobility 	minSpeed 	3.5743312962134
scalar warning_scenario.node[59].veinsmobility 	maxSpeed 	13.997912201597
scalar warning_scenario.node[59].veinsmobility 	totalDistance 	994.6144624303
scalar warning_scenario.node[59].veinsmobility 	totalCO2Emission 	218.11399710835
scalar warning_scenario.node[6].nic.phy80211p 	busyTime 	0.0060432027777392
scalar warning_scenario.node[6].nic.mac1609_4 	ReceivedUnicastPackets 	0
[...]
scalar warning_scenario.node[75].nic.mac1609_4 	SlotsBackoff 	47
scalar warning_scenario.node[75].nic.mac1609_4 	NumInternalContention 	0
scalar warning_scenario.node[75].nic.mac1609_4 	totalBusyTime 	0.356674
scalar warning_scenario.node[75].veinsmobility 	startTime 	226
scalar warning_scenario.node[75].veinsmobility 	totalTime 	34
scalar warning_scenario.node[75].veinsmobility 	stopTime 	260.04701655317
scalar warning_scenario.node[75].veinsmobility 	minSpeed 	3.9662565647178
scalar warning_scenario.node[75].veinsmobility 	maxSpeed 	13.999831938746
scalar warning_scenario.node[75].veinsmobility 	totalDistance 	381.18426851516
scalar warning_scenario.node[75].veinsmobility 	totalCO2Emission 	104.34982140372
scalar warning_scenario.node[76].nic.phy80211p 	busyTime 	0.010453564819803
scalar warning_scenario.node[76].nic.mac1609_4 	ReceivedUnicastPackets 	0
scalar warning_scenario.node[76].nic.mac1609_4 	ReceivedBroadcasts 	1660
scalar warning_scenario.node[76].nic.mac1609_4 	SentPackets 	31
scalar warning_scenario.node[76].nic.mac1609_4 	SNIRLostPackets 	717
scalar warning_scenario.node[76].nic.mac1609_4 	RXTXLostPackets 	0
scalar warning_scenario.node[76].nic.mac1609_4 	TotalLostPackets 	717
scalar warning_scenario.node[76].nic.mac1609_4 	DroppedPacketsInMac 	0
scalar warning_scenario.node[76].nic.mac1609_4 	TooLittleTime 	0
scalar warning_scenario.node[76].nic.mac1609_4 	TimesIntoBackoff 	31
scalar warning_scenario.node[76].nic.mac1609_4 	SlotsBackoff 	51
scalar warning_scenario.node[76].nic.mac1609_4 	NumInternalContention 	0
scalar warning_scenario.node[76].nic.mac1609_4 	totalBusyTime 	0.328799
scalar warning_scenario.node[76].veinsmobility 	startTime 	229
scalar warning_scenario.node[76].veinsmobility 	totalTime 	31
scalar warning_scenario.node[76].veinsmobility 	stopTime 	260.04701655317
scalar warning_scenario.node[76].veinsmobility 	minSpeed 	3.7829912996673
scalar warning_scenario.node[76].veinsmobility 	maxSpeed 	13.96972554839
scalar warning_scenario.node[76].veinsmobility 	totalDistance 	336.36708011426
scalar warning_scenario.node[76].veinsmobility 	totalCO2Emission 	98.106110747519
scalar warning_scenario.node[77].nic.phy80211p 	busyTime 	0.010587650185078
scalar warning_scenario.node[77].nic.mac1609_4 	ReceivedUnicastPackets 	0
scalar warning_scenario.node[77].nic.mac1609_4 	ReceivedBroadcasts 	1496
scalar warning_scenario.node[77].nic.mac1609_4 	SentPackets 	28
scalar warning_scenario.node[77].nic.mac1609_4 	SNIRLostPackets 	679
scalar warning_scenario.node[77].nic.mac1609_4 	RXTXLostPackets 	0
scalar warning_scenario.node[77].nic.mac1609_4 	TotalLostPackets 	679
scalar warning_scenario.node[77].nic.mac1609_4 	DroppedPacketsInMac 	0
scalar warning_scenario.node[77].nic.mac1609_4 	TooLittleTime 	0
scalar warning_scenario.node[77].nic.mac1609_4 	TimesIntoBackoff 	28
scalar warning_scenario.node[77].nic.mac1609_4 	SlotsBackoff 	40
scalar warning_scenario.node[77].nic.mac1609_4 	NumInternalContention 	0
scalar warning_scenario.node[77].nic.mac1609_4 	totalBusyTime 	0.300788
scalar warning_scenario.node[77].veinsmobility 	startTime 	232
scalar warning_scenario.node[77].veinsmobility 	totalTime 	28
scalar warning_scenario.node[77].veinsmobility 	stopTime 	260.04701655317
scalar warning_scenario.node[77].veinsmobility 	minSpeed 	3.5839872435119
scalar warning_scenario.node[77].veinsmobility 	maxSpeed 	13.946647387506
scalar warning_scenario.node[77].veinsmobility 	totalDistance 	294.63475616388
scalar warning_scenario.node[77].veinsmobility 	totalCO2Emission 	92.371101134347
scalar warning_scenario.node[78].nic.phy80211p 	busyTime 	0.010737566265792
scalar warning_scenario.node[78].nic.mac1609_4 	ReceivedUnicastPackets 	0
scalar warning_scenario.node[78].nic.mac1609_4 	ReceivedBroadcasts 	1357
scalar warning_scenario.node[78].nic.mac1609_4 	SentPackets 	25
scalar warning_scenario.node[78].nic.mac1609_4 	SNIRLostPackets 	613
scalar warning_scenario.node[78].nic.mac1609_4 	RXTXLostPackets 	0
scalar warning_scenario.node[78].nic.mac1609_4 	TotalLostPackets 	613
scalar warning_scenario.node[78].nic.mac1609_4 	DroppedPacketsInMac 	0
scalar warning_scenario.node[78].nic.mac1609_4 	TooLittleTime 	0
scalar warning_scenario.node[78].nic.mac1609_4 	TimesIntoBackoff 	25
scalar warning_scenario.node[78].nic.mac1609_4 	SlotsBackoff 	34
scalar warning_scenario.node[78].nic.mac1609_4 	NumInternalContention 	0
scalar warning_scenario.node[78].nic.mac1609_4 	totalBusyTime 	0.272369
scalar warning_scenario.node[78].veinsmobility 	startTime 	235
scalar warning_scenario.node[78].veinsmobility 	totalTime 	25
scalar warning_scenario.node[78].veinsmobility 	stopTime 	260.04701655317
scalar warning_scenario.node[78].veinsmobility 	minSpeed 	3.5627480876418
scalar warning_scenario.node[78].veinsmobility 	maxSpeed 	13.865621448506
scalar warning_scenario.node[78].veinsmobility 	totalDistance 	253.63611400108
scalar warning_scenario.node[78].veinsmobility 	totalCO2Emission 	79.908196928593
scalar warning_scenario.node[79].nic.phy80211p 	busyTime 	0.01082958319663
scalar warning_scenario.node[79].nic.mac1609_4 	ReceivedUnicastPackets 	0
scalar warning_scenario.node[79].nic.mac1609_4 	ReceivedBroadcasts 	1189
scalar warning_scenario.node[79].nic.mac1609_4 	SentPackets 	22
scalar warning_scenario.node[79].nic.mac1609_4 	SNIRLostPackets 	560
scalar warning_scenario.node[79].nic.mac1609_4 	RXTXLostPackets 	0
scalar warning_scenario.node[79].nic.mac1609_4 	TotalLostPackets 	560
scalar warning_scenario.node[79].nic.mac1609_4 	DroppedPacketsInMac 	0
scalar warning_scenario.node[79].nic.mac1609_4 	TooLittleTime 	0
scalar warning_scenario.node[79].nic.mac1609_4 	TimesIntoBackoff 	22
scalar warning_scenario.node[79].nic.mac1609_4 	SlotsBackoff 	47
scalar warning_scenario.node[79].nic.mac1609_4 	NumInternalContention 	0
scalar warning_scenario.node[79].nic.mac1609_4 	totalBusyTime 	0.241774
scalar warning_scenario.node[79].veinsmobility 	startTime 	238
scalar warning_scenario.node[79].veinsmobility 	totalTime 	22
scalar warning_scenario.node[79].veinsmobility 	stopTime 	260.04701655317
scalar warning_scenario.node[79].veinsmobility 	minSpeed 	3.8066004380985
scalar warning_scenario.node[79].veinsmobility 	maxSpeed 	13.88972207895
scalar warning_scenario.node[79].veinsmobility 	totalDistance 	227.6833655604
scalar warning_scenario.node[79].veinsmobility 	totalCO2Emission 	60.448240412061
scalar warning_scenario.node[8].nic.phy80211p 	busyTime 	0.0062304470887364
scalar warning_scenario.node[8].nic.mac1609_4 	ReceivedUnicastPackets 	0
scalar warning_scenario.node[8].nic.mac1609_4 	ReceivedBroadcasts 	8259
scalar warning_scenario.node[8].nic.mac1609_4 	SentPackets 	235
scalar warning_scenario.node[8].nic.mac1609_4 	SNIRLostPackets 	2476
scalar warning_scenario.node[8].nic.mac1609_4 	RXTXLostPackets 	0
scalar warning_scenario.node[8].nic.mac1609_4 	TotalLostPackets 	2476
scalar warning_scenario.node[8].nic.mac1609_4 	DroppedPacketsInMac 	0
scalar warning_scenario.node[8].nic.mac1609_4 	TooLittleTime 	0
scalar warning_scenario.node[8].nic.mac1609_4 	TimesIntoBackoff 	235
scalar warning_scenario.node[8].nic.mac1609_4 	SlotsBackoff 	333
scalar warning_scenario.node[8].nic.mac1609_4 	NumInternalContention 	0
scalar warning_scenario.node[8].nic.mac1609_4 	totalBusyTime 	1.496507
scalar warning_scenario.node[8].veinsmobility 	startTime 	25
scalar warning_scenario.node[8].veinsmobility 	totalTime 	235
scalar warning_scenario.node[8].veinsmobility 	stopTime 	260.04701655317
scalar warning_scenario.node[8].veinsmobility 	minSpeed 	3.8025517781643
scalar warning_scenario.node[8].veinsmobility 	maxSpeed 	13.998242204706
scalar warning_scenario.node[8].veinsmobility 	totalDistance 	3123.2190507117
scalar warning_scenario.node[8].veinsmobility 	totalCO2Emission 	528.6472738154
scalar warning_scenario.node[80].nic.phy80211p 	busyTime 	0.010900604796581
scalar warning_scenario.node[80].nic.mac1609_4 	ReceivedUnicastPackets 	0
scalar warning_scenario.node[80].nic.mac1609_4 	ReceivedBroadcasts 	1036
scalar warning_scenario.node[80].nic.mac1609_4 	SentPackets 	19
scalar warning_scenario.node[80].nic.mac1609_4 	SNIRLostPackets 	485
scalar warning_scenario.node[80].nic.mac1609_4 	RXTXLostPackets 	0
scalar warning_scenario.node[80].nic.mac1609_4 	TotalLostPackets 	485
scalar warning_scenario.node[80].nic.mac1609_4 	DroppedPacketsInMac 	0
scalar warning_scenario.node[80].nic.mac1609_4 	TooLittleTime 	0
scalar warning_scenario.node[80].nic.mac1609_4 	TimesIntoBackoff 	19
scalar warning_scenario.node[80].nic.mac1609_4 	SlotsBackoff 	24
scalar warning_scenario.node[80].nic.mac1609_4 	NumInternalContention 	0
scalar warning_scenario.node[80].nic.mac1609_4 	totalBusyTime 	0.210227
scalar warning_scenario.node[80].veinsmobility 	startTime 	241
scalar warning_scenario.node[80].veinsmobility 	totalTime 	19
scalar warning_scenario.node[80].veinsmobility 	stopTime 	260.04701655317
scalar warning_scenario.node[80].veinsmobility 	minSpeed 	4.1193399660713
scalar warning_scenario.node[80].veinsmobility 	maxSpeed 	13.866893187563
scalar warning_scenario.node[80].veinsmobility 	totalDistance 	212.40933214199
scalar warning_scenario.node[80].veinsmobility 	totalCO2Emission 	53.932674934327
scalar warning_scenario.node[81].nic.phy80211p 	busyTime 	0.010930380698423
scalar warning_scenario.node[81].nic.mac1609_4 	ReceivedUnicastPackets 	0
scalar warning_scenario.node[81].nic.mac1609_4 	ReceivedBroadcasts 	871
scalar warning_scenario.node[81].nic.mac1609_4 	SentPackets 	16
scalar warning_scenario.node[81].nic.mac1609_4 	SNIRLostPackets 	414
scalar warning_scenario.node[81].nic.mac1609_4 	RXTXLostPackets 	0
scalar warning_scenario.node[81].nic.mac1609_4 	TotalLostPackets 	414
scalar warning_scenario.node[81].nic.mac1609_4 	DroppedPacketsInMac 	0
scalar warning_scenario.node[81].nic.mac1609_4 	TooLittleTime 	0
scalar warning_scenario.node[81].nic.mac1609_4 	TimesIntoBackoff 	16
scalar warning_scenario.node[81].nic.mac1609_4 	SlotsBackoff 	23
scalar warning_scenario.node[81].nic.mac1609_4 	NumInternalContention 	0
scalar warning_scenario.node[81].nic.mac1609_4 	totalBusyTime 	0.177592
scalar warning_scenario.node[81].veinsmobility 	startTime 	244
scalar warning_scenario.node[81].veinsmobility 	totalTime 	16
scalar warning_scenario.node[81].veinsmobility 	stopTime 	260.04701655317
scalar warning_scenario.node[81].veinsmobility 	minSpeed 	3.8138925646273
scalar warning_scenario.node[81].veinsmobility 	maxSpeed 	13.865494477886
scalar warning_scenario.node[81].veinsmobility 	totalDistance 	182.40920282768
scalar warning_scenario.node[81].veinsmobility 	totalCO2Emission 	50.879211889883
scalar warning_scenario.node[82].nic.phy80211p 	busyTime 	0.01090088292756
scalar warning_scenario.node[82].nic.mac1609_4 	ReceivedUnicastPackets 	0
scalar warning_scenario.node[82].nic.mac1609_4 	ReceivedBroadcasts 	709
scalar warning_scenario.node[82].nic.mac1609_4 	SentPackets 	14
scalar warning_scenario.node[82].nic.mac1609_4 	SNIRLostPackets 	333
scalar warning_scenario.node[82].nic.mac1609_4 	RXTXLostPackets 	0
scalar warning_scenario.node[82].nic.mac1609_4 	TotalLostPackets 	333
scalar warning_scenario.node[82].nic.mac1609_4 	DroppedPacketsInMac 	0
scalar warning_scenario.node[82].nic.mac1609_4 	TooLittleTime 	0
scalar warning_scenario.node[82].nic.mac1609_4 	TimesIntoBackoff 	14
scalar warning_scenario.node[82].nic.mac1609_4 	SlotsBackoff 	27
scalar warning_scenario.node[82].nic.mac1609_4 	NumInternalContention 	0
scalar warning_scenario.node[82].nic.mac1609_4 	totalBusyTime 	0.144142
scalar warning_scenario.node[82].veinsmobility 	startTime 	247
scalar warning_scenario.node[82].veinsmobility 	totalTime 	13
scalar warning_scenario.node[82].veinsmobility 	stopTime 	260.04701655317
scalar warning_scenario.node[82].veinsmobility 	minSpeed 	4.0665254779379
scalar warning_scenario.node[82].veinsmobility 	maxSpeed 	13.870446319683
scalar warning_scenario.node[82].veinsmobility 	totalDistance 	144.01491133244
scalar warning_scenario.node[82].veinsmobility 	totalCO2Emission 	46.045732516221
scalar warning_scenario.node[83].nic.phy80211p 	busyTime 	0.010853769317782
scalar warning_scenario.node[83].nic.mac1609_4 	ReceivedUnicastPackets 	0
scalar warning_scenario.node[83].nic.mac1609_4 	ReceivedBroadcasts 	541
scalar warning_scenario.node[83].nic.mac1609_4 	SentPackets 	10
scalar warning_scenario.node[83].nic.mac1609_4 	SNIRLostPackets 	258
scalar warning_scenario.node[83].nic.mac1609_4 	RXTXLostPackets 	0
scalar warning_scenario.node[83].nic.mac1609_4 	TotalLostPackets 	258
scalar warning_scenario.node[83].nic.mac1609_4 	DroppedPacketsInMac 	0
scalar warning_scenario.node[83].nic.mac1609_4 	TooLittleTime 	0
scalar warning_scenario.node[83].nic.mac1609_4 	TimesIntoBackoff 	10
scalar warning_scenario.node[83].nic.mac1609_4 	SlotsBackoff 	12
scalar warning_scenario.node[83].nic.mac1609_4 	NumInternalContention 	0
scalar warning_scenario.node[83].nic.mac1609_4 	totalBusyTime 	0.110418
scalar warning_scenario.node[83].veinsmobility 	startTime 	250
scalar warning_scenario.node[83].veinsmobility 	totalTime 	10
scalar warning_scenario.node[83].veinsmobility 	stopTime 	260.04701655317
scalar warning_scenario.node[83].veinsmobility 	minSpeed 	3.994390901902
scalar warning_scenario.node[83].veinsmobility 	maxSpeed 	13.880070086052
scalar warning_scenario.node[83].veinsmobility 	totalDistance 	103.2320182778
scalar warning_scenario.node[83].veinsmobility 	totalCO2Emission 	40.001738378636
scalar warning_scenario.node[84].nic.phy80211p 	busyTime 	0.010785840990518
scalar warning_scenario.node[84].nic.mac1609_4 	ReceivedUnicastPackets 	0
scalar warning_scenario.node[84].nic.mac1609_4 	ReceivedBroadcasts 	382
scalar warning_scenario.node[84].nic.mac1609_4 	SentPackets 	7
scalar warning_scenario.node[84].nic.mac1609_4 	SNIRLostPackets 	175
scalar warning_scenario.node[84].nic.mac1609_4 	RXTXLostPackets 	0
scalar warning_scenario.node[84].nic.mac1609_4 	TotalLostPackets 	175
scalar warning_scenario.node[84].nic.mac1609_4 	DroppedPacketsInMac 	0
scalar warning_scenario.node[84].nic.mac1609_4 	TooLittleTime 	0
scalar warning_scenario.node[84].nic.mac1609_4 	TimesIntoBackoff 	7
scalar warning_scenario.node[84].nic.mac1609_4 	SlotsBackoff 	10
scalar warning_scenario.node[84].nic.mac1609_4 	NumInternalContention 	0
scalar warning_scenario.node[84].nic.mac1609_4 	totalBusyTime 	0.076967
scalar warning_scenario.node[84].veinsmobility 	startTime 	253
scalar warning_scenario.node[84].veinsmobility 	totalTime 	7
scalar warning_scenario.node[84].veinsmobility 	stopTime 	260.04701655317
scalar warning_scenario.node[84].veinsmobility 	minSpeed 	3.9774296462472
scalar warning_scenario.node[84].veinsmobility 	maxSpeed 	13.879141858977
scalar warning_scenario.node[84].veinsmobility 	totalDistance 	62.618728146125
scalar warning_scenario.node[84].veinsmobility 	totalCO2Emission 	34.224503135131
scalar warning_scenario.node[85].nic.phy80211p 	busyTime 	0.010718018923364
scalar warning_scenario.node[85].nic.mac1609_4 	ReceivedUnicastPackets 	0
scalar warning_scenario.node[85].nic.mac1609_4 	ReceivedBroadcasts 	217
scalar warning_scenario.node[85].nic.mac1609_4 	SentPackets 	4
scalar warning_scenario.node[85].nic.mac1609_4 	SNIRLostPackets 	101
scalar warning_scenario.node[85].nic.mac1609_4 	RXTXLostPackets 	0
scalar warning_scenario.node[85].nic.mac1609_4 	TotalLostPackets 	101
scalar warning_scenario.node[85].nic.mac1609_4 	DroppedPacketsInMac 	0
scalar warning_scenario.node[85].nic.mac1609_4 	TooLittleTime 	0
scalar warning_scenario.node[85].nic.mac1609_4 	TimesIntoBackoff 	4
scalar warning_scenario.node[85].nic.mac1609_4 	SlotsBackoff 	2
scalar warning_scenario.node[85].nic.mac1609_4 	NumInternalContention 	0
scalar warning_scenario.node[85].nic.mac1609_4 	totalBusyTime 	0.043924
scalar warning_scenario.node[85].veinsmobility 	startTime 	256
scalar warning_scenario.node[85].veinsmobility 	totalTime 	4
scalar warning_scenario.node[85].veinsmobility 	stopTime 	260.04701655317
scalar warning_scenario.node[85].veinsmobility 	minSpeed 	4.1093735406164
scalar warning_scenario.node[85].veinsmobility 	maxSpeed 	9.7545266039542
scalar warning_scenario.node[85].veinsmobility 	totalDistance 	24.120685937212
scalar warning_scenario.node[85].veinsmobility 	totalCO2Emission 	15.326187778496
scalar warning_scenario.node[86].nic.phy80211p 	busyTime 	0.010651216512555
scalar warning_scenario.node[86].nic.mac1609_4 	ReceivedUnicastPackets 	0
scalar warning_scenario.node[86].nic.mac1609_4 	ReceivedBroadcasts 	55
scalar warning_scenario.node[86].nic.mac1609_4 	SentPackets 	1
scalar warning_scenario.node[86].nic.mac1609_4 	SNIRLostPackets 	27
scalar warning_scenario.node[86].nic.mac1609_4 	RXTXLostPackets 	0
scalar warning_scenario.node[86].nic.mac1609_4 	TotalLostPackets 	27
scalar warning_scenario.node[86].nic.mac1609_4 	DroppedPacketsInMac 	0
scalar warning_scenario.node[86].nic.mac1609_4 	TooLittleTime 	0
scalar warning_scenario.node[86].nic.mac1609_4 	TimesIntoBackoff 	1
scalar warning_scenario.node[86].nic.mac1609_4 	SlotsBackoff 	3
scalar warning_scenario.node[86].nic.mac1609_4 	NumInternalContention 	0
scalar warning_scenario.node[86].nic.mac1609_4 	totalBusyTime 	0.011289
scalar warning_scenario.node[86].veinsmobility 	startTime 	259
scalar warning_scenario.node[86].veinsmobility 	totalTime 	1
scalar warning_scenario.node[86].veinsmobility 	stopTime 	260.04701655317
scalar warning_scenario.node[86].veinsmobility 	minSpeed 	3.8783016593793
scalar warning_scenario.node[86].veinsmobility 	maxSpeed 	3.8783016593793
scalar warning_scenario.node[86].veinsmobility 	totalDistance 	3.0044410826668
scalar warning_scenario.node[86].veinsmobility 	totalCO2Emission 	0
scalar warning_scenario.node[9].nic.phy80211p 	busyTime 	0.0063233047414064
scalar warning_scenario.node[9].nic.mac1609_4 	ReceivedUnicastPackets 	0
scalar warning_scenario.node[9].nic.mac1609_4 	ReceivedBroadcasts 	8362
scalar warning_scenario.node[9].nic.mac1609_4 	SentPackets 	232
scalar warning_scenario.node[9].nic.mac1609_4 	SNIRLostPackets 	2394
scalar warning_scenario.node[9].nic.mac1609_4 	RXTXLostPackets 	0
scalar warning_scenario.node[9].nic.mac1609_4 	TotalLostPackets 	2394
scalar warning_scenario.node[9].nic.mac1609_4 	DroppedPacketsInMac 	0
scalar warning_scenario.node[9].nic.mac1609_4 	TooLittleTime 	0
scalar warning_scenario.node[9].nic.mac1609_4 	TimesIntoBackoff 	232
scalar warning_scenario.node[9].nic.mac1609_4 	SlotsBackoff 	358
scalar warning_scenario.node[9].nic.mac1609_4 	NumInternalContention 	0
scalar warning_scenario.node[9].nic.mac1609_4 	totalBusyTime 	1.498952
scalar warning_scenario.node[9].veinsmobility 	startTime 	28
scalar warning_scenario.node[9].veinsmobility 	totalTime 	232
scalar warning_scenario.node[9].veinsmobility 	stopTime 	260.04701655317
scalar warning_scenario.node[9].veinsmobility 	minSpeed 	3.7988102183346
scalar warning_scenario.node[9].veinsmobility 	maxSpeed 	13.999432759099
scalar warning_scenario.node[9].veinsmobility 	totalDistance 	3080.8454512967
scalar warning_scenario.node[9].veinsmobility 	totalCO2Emission 	522.64842484435
scalar warning_scenario.rsu[0].nic.phy80211p 	busyTime 	0.0059164993330552
scalar warning_scenario.rsu[0].nic.mac1609_4 	ReceivedUnicastPackets 	0
scalar warning_scenario.rsu[0].nic.mac1609_4 	ReceivedBroadcasts 	8245
scalar warning_scenario.rsu[0].nic.mac1609_4 	SentPackets 	34
scalar warning_scenario.rsu[0].nic.mac1609_4 	SNIRLostPackets 	3068
scalar warning_scenario.rsu[0].nic.mac1609_4 	RXTXLostPackets 	0
scalar warning_scenario.rsu[0].nic.mac1609_4 	TotalLostPackets 	3068
scalar warning_scenario.rsu[0].nic.mac1609_4 	DroppedPacketsInMac 	0
scalar warning_scenario.rsu[0].nic.mac1609_4 	TooLittleTime 	0
scalar warning_scenario.rsu[0].nic.mac1609_4 	TimesIntoBackoff 	35
scalar warning_scenario.rsu[0].nic.mac1609_4 	SlotsBackoff 	111
scalar warning_scenario.rsu[0].nic.mac1609_4 	NumInternalContention 	0
scalar warning_scenario.rsu[0].nic.mac1609_4 	totalBusyTime 	1.547578
