version 2
run nodebug-0-20161004-21:06:36-17433
attr configname nodebug
attr datetime 20161004-21:06:36
attr experiment nodebug
attr inifile omnetpp.ini
attr iterationvars ""
attr iterationvars2 $repetition=0
attr measurement ""
attr network warning_scenario
attr processid 17433
attr repetition 0
attr replication #0
attr resultdir results
attr runnumber 0
attr seedset 0

scalar warning_scenario.node[5].nic.phy80211p 	busyTime 	0.00051761662817551
scalar warning_scenario.node[5].nic.mac1609_4 	ReceivedUnicastPackets 	0
scalar warning_scenario.node[5].nic.mac1609_4 	ReceivedBroadcasts 	534
scalar warning_scenario.node[5].nic.mac1609_4 	SentPackets 	433
scalar warning_scenario.node[5].nic.mac1609_4 	SNIRLostPackets 	1114
scalar warning_scenario.node[5].nic.mac1609_4 	RXTXLostPackets 	0
scalar warning_scenario.node[5].nic.mac1609_4 	TotalLostPackets 	1114
scalar warning_scenario.node[5].nic.mac1609_4 	DroppedPacketsInMac 	0
scalar warning_scenario.node[5].nic.mac1609_4 	TooLittleTime 	0
scalar warning_scenario.node[5].nic.mac1609_4 	TimesIntoBackoff 	433
scalar warning_scenario.node[5].nic.mac1609_4 	SlotsBackoff 	727
scalar warning_scenario.node[5].nic.mac1609_4 	NumInternalContention 	0
scalar warning_scenario.node[5].nic.mac1609_4 	totalBusyTime 	0.283449
scalar warning_scenario.node[5].veinsmobility 	startTime 	21767
scalar warning_scenario.node[5].veinsmobility 	totalTime 	432
scalar warning_scenario.node[5].veinsmobility 	stopTime 	22200
scalar warning_scenario.node[5].veinsmobility 	minSpeed 	2.4104075113631e-15
scalar warning_scenario.node[5].veinsmobility 	maxSpeed 	10.052046894249
scalar warning_scenario.node[5].veinsmobility 	totalDistance 	2863.7378188258
scalar warning_scenario.node[5].veinsmobility 	totalCO2Emission 	801.7701868539
scalar warning_scenario.node[9].nic.phy80211p 	busyTime 	0.0005813501048218
scalar warning_scenario.node[9].nic.mac1609_4 	ReceivedUnicastPackets 	0
scalar warning_scenario.node[9].nic.mac1609_4 	ReceivedBroadcasts 	1266
scalar warning_scenario.node[9].nic.mac1609_4 	SentPackets 	477
scalar warning_scenario.node[9].nic.mac1609_4 	SNIRLostPackets 	773
scalar warning_scenario.node[9].nic.mac1609_4 	RXTXLostPackets 	0
scalar warning_scenario.node[9].nic.mac1609_4 	TotalLostPackets 	773
scalar warning_scenario.node[9].nic.mac1609_4 	DroppedPacketsInMac 	0
scalar warning_scenario.node[9].nic.mac1609_4 	TooLittleTime 	0
scalar warning_scenario.node[9].nic.mac1609_4 	TimesIntoBackoff 	477
scalar warning_scenario.node[9].nic.mac1609_4 	SlotsBackoff 	709
scalar warning_scenario.node[9].nic.mac1609_4 	NumInternalContention 	0
scalar warning_scenario.node[9].nic.mac1609_4 	totalBusyTime 	0.342653
scalar warning_scenario.node[9].veinsmobility 	startTime 	21939
scalar warning_scenario.node[9].veinsmobility 	totalTime 	476
scalar warning_scenario.node[9].veinsmobility 	stopTime 	22416
scalar warning_scenario.node[9].veinsmobility 	minSpeed 	4.7356474419529e-12
scalar warning_scenario.node[9].veinsmobility 	maxSpeed 	15.986478647084
scalar warning_scenario.node[9].veinsmobility 	totalDistance 	5422.2399932001
scalar warning_scenario.node[9].veinsmobility 	totalCO2Emission 	1275.7088103894
scalar warning_scenario.node[19].nic.phy80211p 	busyTime 	0.0010191244635193
scalar warning_scenario.node[19].nic.mac1609_4 	ReceivedUnicastPackets 	0
scalar warning_scenario.node[19].nic.mac1609_4 	ReceivedBroadcasts 	817
scalar warning_scenario.node[19].nic.mac1609_4 	SentPackets 	233
scalar warning_scenario.node[19].nic.mac1609_4 	SNIRLostPackets 	929
scalar warning_scenario.node[19].nic.mac1609_4 	RXTXLostPackets 	0
scalar warning_scenario.node[19].nic.mac1609_4 	TotalLostPackets 	929
scalar warning_scenario.node[19].nic.mac1609_4 	DroppedPacketsInMac 	0
scalar warning_scenario.node[19].nic.mac1609_4 	TooLittleTime 	0
scalar warning_scenario.node[19].nic.mac1609_4 	TimesIntoBackoff 	233
scalar warning_scenario.node[19].nic.mac1609_4 	SlotsBackoff 	358
scalar warning_scenario.node[19].nic.mac1609_4 	NumInternalContention 	0
scalar warning_scenario.node[19].nic.mac1609_4 	totalBusyTime 	0.269377
scalar warning_scenario.node[19].veinsmobility 	startTime 	22203
scalar warning_scenario.node[19].veinsmobility 	totalTime 	232
scalar warning_scenario.node[19].veinsmobility 	stopTime 	22436
scalar warning_scenario.node[19].veinsmobility 	minSpeed 	9.8359754951885e-13
scalar warning_scenario.node[19].veinsmobility 	maxSpeed 	16.38410408374
scalar warning_scenario.node[19].veinsmobility 	totalDistance 	2531.5443753002
scalar warning_scenario.node[19].veinsmobility 	totalCO2Emission 	585.13903088029
scalar warning_scenario.node[0].nic.phy80211p 	busyTime 	0.00059490150637317
scalar warning_scenario.node[0].nic.mac1609_4 	ReceivedUnicastPackets 	0
scalar warning_scenario.node[0].nic.mac1609_4 	ReceivedBroadcasts 	2077
scalar warning_scenario.node[0].nic.mac1609_4 	SentPackets 	863
scalar warning_scenario.node[0].nic.mac1609_4 	SNIRLostPackets 	1698
scalar warning_scenario.node[0].nic.mac1609_4 	RXTXLostPackets 	0
scalar warning_scenario.node[0].nic.mac1609_4 	TotalLostPackets 	1698
scalar warning_scenario.node[0].nic.mac1609_4 	DroppedPacketsInMac 	0
scalar warning_scenario.node[0].nic.mac1609_4 	TooLittleTime 	0
scalar warning_scenario.node[0].nic.mac1609_4 	TimesIntoBackoff 	863
scalar warning_scenario.node[0].nic.mac1609_4 	SlotsBackoff 	1288
scalar warning_scenario.node[0].nic.mac1609_4 	NumInternalContention 	0
scalar warning_scenario.node[0].nic.mac1609_4 	totalBusyTime 	0.631631
scalar warning_scenario.node[0].veinsmobility 	startTime 	21614
scalar warning_scenario.node[0].veinsmobility 	totalTime 	862
scalar warning_scenario.node[0].veinsmobility 	stopTime 	22477
scalar warning_scenario.node[0].veinsmobility 	minSpeed 	0
scalar warning_scenario.node[0].veinsmobility 	maxSpeed 	15.500896998934
scalar warning_scenario.node[0].veinsmobility 	totalDistance 	8045.0337591519
scalar warning_scenario.node[0].veinsmobility 	totalCO2Emission 	2110.7727105102
scalar warning_scenario.node[2].nic.phy80211p 	busyTime 	0.00070814921780994
scalar warning_scenario.node[2].nic.mac1609_4 	ReceivedUnicastPackets 	0
scalar warning_scenario.node[2].nic.mac1609_4 	ReceivedBroadcasts 	2220
scalar warning_scenario.node[2].nic.mac1609_4 	SentPackets 	831
scalar warning_scenario.node[2].nic.mac1609_4 	SNIRLostPackets 	2107
scalar warning_scenario.node[2].nic.mac1609_4 	RXTXLostPackets 	0
scalar warning_scenario.node[2].nic.mac1609_4 	TotalLostPackets 	2107
scalar warning_scenario.node[2].nic.mac1609_4 	DroppedPacketsInMac 	0
scalar warning_scenario.node[2].nic.mac1609_4 	TooLittleTime 	0
scalar warning_scenario.node[2].nic.mac1609_4 	TimesIntoBackoff 	831
scalar warning_scenario.node[2].nic.mac1609_4 	SlotsBackoff 	1239
scalar warning_scenario.node[2].nic.mac1609_4 	NumInternalContention 	0
scalar warning_scenario.node[2].nic.mac1609_4 	totalBusyTime 	0.702319
scalar warning_scenario.node[2].veinsmobility 	startTime 	21677
scalar warning_scenario.node[2].veinsmobility 	totalTime 	830
scalar warning_scenario.node[2].veinsmobility 	stopTime 	22508
scalar warning_scenario.node[2].veinsmobility 	minSpeed 	2.5617712884428e-15
scalar warning_scenario.node[2].veinsmobility 	maxSpeed 	10.61192611015
scalar warning_scenario.node[2].veinsmobility 	totalDistance 	6249.4957593163
scalar warning_scenario.node[2].veinsmobility 	totalCO2Emission 	1608.7223008172
scalar warning_scenario.node[8].nic.phy80211p 	busyTime 	0.0007512989045384
scalar warning_scenario.node[8].nic.mac1609_4 	ReceivedUnicastPackets 	0
scalar warning_scenario.node[8].nic.mac1609_4 	ReceivedBroadcasts 	1937
scalar warning_scenario.node[8].nic.mac1609_4 	SentPackets 	639
scalar warning_scenario.node[8].nic.mac1609_4 	SNIRLostPackets 	1593
scalar warning_scenario.node[8].nic.mac1609_4 	RXTXLostPackets 	0
scalar warning_scenario.node[8].nic.mac1609_4 	TotalLostPackets 	1593
scalar warning_scenario.node[8].nic.mac1609_4 	DroppedPacketsInMac 	0
scalar warning_scenario.node[8].nic.mac1609_4 	TooLittleTime 	0
scalar warning_scenario.node[8].nic.mac1609_4 	TimesIntoBackoff 	639
scalar warning_scenario.node[8].nic.mac1609_4 	SlotsBackoff 	979
scalar warning_scenario.node[8].nic.mac1609_4 	NumInternalContention 	0
scalar warning_scenario.node[8].nic.mac1609_4 	totalBusyTime 	0.567623
scalar warning_scenario.node[8].veinsmobility 	startTime 	21906
scalar warning_scenario.node[8].veinsmobility 	totalTime 	638
scalar warning_scenario.node[8].veinsmobility 	stopTime 	22545
scalar warning_scenario.node[8].veinsmobility 	minSpeed 	0
scalar warning_scenario.node[8].veinsmobility 	maxSpeed 	14.166692202724
scalar warning_scenario.node[8].veinsmobility 	totalDistance 	5410.2181128172
scalar warning_scenario.node[8].veinsmobility 	totalCO2Emission 	1499.6303087693
scalar warning_scenario.node[17].nic.phy80211p 	busyTime 	0.0007978666666667
scalar warning_scenario.node[17].nic.mac1609_4 	ReceivedUnicastPackets 	0
scalar warning_scenario.node[17].nic.mac1609_4 	ReceivedBroadcasts 	1249
scalar warning_scenario.node[17].nic.mac1609_4 	SentPackets 	450
scalar warning_scenario.node[17].nic.mac1609_4 	SNIRLostPackets 	1391
scalar warning_scenario.node[17].nic.mac1609_4 	RXTXLostPackets 	0
scalar warning_scenario.node[17].nic.mac1609_4 	TotalLostPackets 	1391
scalar warning_scenario.node[17].nic.mac1609_4 	DroppedPacketsInMac 	0
scalar warning_scenario.node[17].nic.mac1609_4 	TooLittleTime 	0
scalar warning_scenario.node[17].nic.mac1609_4 	TimesIntoBackoff 	450
scalar warning_scenario.node[17].nic.mac1609_4 	SlotsBackoff 	687
scalar warning_scenario.node[17].nic.mac1609_4 	NumInternalContention 	0
scalar warning_scenario.node[17].nic.mac1609_4 	totalBusyTime 	0.42069
scalar warning_scenario.node[17].veinsmobility 	startTime 	22131
scalar warning_scenario.node[17].veinsmobility 	totalTime 	449
scalar warning_scenario.node[17].veinsmobility 	stopTime 	22581
scalar warning_scenario.node[17].veinsmobility 	minSpeed 	2.7200348249844e-15
scalar warning_scenario.node[17].veinsmobility 	maxSpeed 	23.309346105901
scalar warning_scenario.node[17].veinsmobility 	totalDistance 	6075.3588163501
scalar warning_scenario.node[17].veinsmobility 	totalCO2Emission 	1353.7332006112
scalar warning_scenario.node[12].nic.phy80211p 	busyTime 	0.00074092649098481
scalar warning_scenario.node[12].nic.mac1609_4 	ReceivedUnicastPackets 	0
scalar warning_scenario.node[12].nic.mac1609_4 	ReceivedBroadcasts 	1465
scalar warning_scenario.node[12].nic.mac1609_4 	SentPackets 	721
scalar warning_scenario.node[12].nic.mac1609_4 	SNIRLostPackets 	2463
scalar warning_scenario.node[12].nic.mac1609_4 	RXTXLostPackets 	0
scalar warning_scenario.node[12].nic.mac1609_4 	TotalLostPackets 	2463
scalar warning_scenario.node[12].nic.mac1609_4 	DroppedPacketsInMac 	0
scalar warning_scenario.node[12].nic.mac1609_4 	TooLittleTime 	0
scalar warning_scenario.node[12].nic.mac1609_4 	TimesIntoBackoff 	721
scalar warning_scenario.node[12].nic.mac1609_4 	SlotsBackoff 	1065
scalar warning_scenario.node[12].nic.mac1609_4 	NumInternalContention 	0
scalar warning_scenario.node[12].nic.mac1609_4 	totalBusyTime 	0.632985
scalar warning_scenario.node[12].veinsmobility 	startTime 	21981
scalar warning_scenario.node[12].veinsmobility 	totalTime 	720
scalar warning_scenario.node[12].veinsmobility 	stopTime 	22702
scalar warning_scenario.node[12].veinsmobility 	minSpeed 	2.4340478089129e-15
scalar warning_scenario.node[12].veinsmobility 	maxSpeed 	12.350240099817
scalar warning_scenario.node[12].veinsmobility 	totalDistance 	5473.2905651005
scalar warning_scenario.node[12].veinsmobility 	totalCO2Emission 	1518.7562152628
scalar warning_scenario.node[3].nic.phy80211p 	busyTime 	0.00018124137931034
scalar warning_scenario.node[3].nic.mac1609_4 	ReceivedUnicastPackets 	0
scalar warning_scenario.node[3].nic.mac1609_4 	ReceivedBroadcasts 	550
scalar warning_scenario.node[3].nic.mac1609_4 	SentPackets 	986
scalar warning_scenario.node[3].nic.mac1609_4 	SNIRLostPackets 	764
scalar warning_scenario.node[3].nic.mac1609_4 	RXTXLostPackets 	0
scalar warning_scenario.node[3].nic.mac1609_4 	TotalLostPackets 	764
scalar warning_scenario.node[3].nic.mac1609_4 	DroppedPacketsInMac 	0
scalar warning_scenario.node[3].nic.mac1609_4 	TooLittleTime 	0
scalar warning_scenario.node[3].nic.mac1609_4 	TimesIntoBackoff 	986
scalar warning_scenario.node[3].nic.mac1609_4 	SlotsBackoff 	1515
scalar warning_scenario.node[3].nic.mac1609_4 	NumInternalContention 	0
scalar warning_scenario.node[3].nic.mac1609_4 	totalBusyTime 	0.313786
scalar warning_scenario.node[3].veinsmobility 	startTime 	21722
scalar warning_scenario.node[3].veinsmobility 	totalTime 	985
scalar warning_scenario.node[3].veinsmobility 	stopTime 	22708
scalar warning_scenario.node[3].veinsmobility 	minSpeed 	0
scalar warning_scenario.node[3].veinsmobility 	maxSpeed 	15.628668193569
scalar warning_scenario.node[3].veinsmobility 	totalDistance 	9430.0970882835
scalar warning_scenario.node[3].veinsmobility 	totalCO2Emission 	2400.9997242042
scalar warning_scenario.node[10].nic.phy80211p 	busyTime 	0.00071422049286647
scalar warning_scenario.node[10].nic.mac1609_4 	ReceivedUnicastPackets 	0
scalar warning_scenario.node[10].nic.mac1609_4 	ReceivedBroadcasts 	2042
scalar warning_scenario.node[10].nic.mac1609_4 	SentPackets 	771
scalar warning_scenario.node[10].nic.mac1609_4 	SNIRLostPackets 	2007
scalar warning_scenario.node[10].nic.mac1609_4 	RXTXLostPackets 	0
scalar warning_scenario.node[10].nic.mac1609_4 	TotalLostPackets 	2007
scalar warning_scenario.node[10].nic.mac1609_4 	DroppedPacketsInMac 	0
scalar warning_scenario.node[10].nic.mac1609_4 	TooLittleTime 	0
scalar warning_scenario.node[10].nic.mac1609_4 	TimesIntoBackoff 	771
scalar warning_scenario.node[10].nic.mac1609_4 	SlotsBackoff 	1132
scalar warning_scenario.node[10].nic.mac1609_4 	NumInternalContention 	0
scalar warning_scenario.node[10].nic.mac1609_4 	totalBusyTime 	0.656291
scalar warning_scenario.node[10].veinsmobility 	startTime 	21965
scalar warning_scenario.node[10].veinsmobility 	totalTime 	770
scalar warning_scenario.node[10].veinsmobility 	stopTime 	22736
scalar warning_scenario.node[10].veinsmobility 	minSpeed 	0
scalar warning_scenario.node[10].veinsmobility 	maxSpeed 	14.297090930488
scalar warning_scenario.node[10].veinsmobility 	totalDistance 	6589.5264362481
scalar warning_scenario.node[10].veinsmobility 	totalCO2Emission 	1731.0588749884
scalar warning_scenario.node[23].nic.phy80211p 	busyTime 	0.0011709060542799
scalar warning_scenario.node[23].nic.mac1609_4 	ReceivedUnicastPackets 	0
scalar warning_scenario.node[23].nic.mac1609_4 	ReceivedBroadcasts 	3000
scalar warning_scenario.node[23].nic.mac1609_4 	SentPackets 	479
scalar warning_scenario.node[23].nic.mac1609_4 	SNIRLostPackets 	1124
scalar warning_scenario.node[23].nic.mac1609_4 	RXTXLostPackets 	0
scalar warning_scenario.node[23].nic.mac1609_4 	TotalLostPackets 	1124
scalar warning_scenario.node[23].nic.mac1609_4 	DroppedPacketsInMac 	0
scalar warning_scenario.node[23].nic.mac1609_4 	TooLittleTime 	0
scalar warning_scenario.node[23].nic.mac1609_4 	TimesIntoBackoff 	479
scalar warning_scenario.node[23].nic.mac1609_4 	SlotsBackoff 	704
scalar warning_scenario.node[23].nic.mac1609_4 	NumInternalContention 	0
scalar warning_scenario.node[23].nic.mac1609_4 	totalBusyTime 	0.626487
scalar warning_scenario.node[23].veinsmobility 	startTime 	22270
scalar warning_scenario.node[23].veinsmobility 	totalTime 	478
scalar warning_scenario.node[23].veinsmobility 	stopTime 	22749
scalar warning_scenario.node[23].veinsmobility 	minSpeed 	2.4555112148619e-15
scalar warning_scenario.node[23].veinsmobility 	maxSpeed 	16.424489543635
scalar warning_scenario.node[23].veinsmobility 	totalDistance 	5299.5856889203
scalar warning_scenario.node[23].veinsmobility 	totalCO2Emission 	1291.4890949662
scalar warning_scenario.node[22].nic.phy80211p 	busyTime 	0.00058607003891052
scalar warning_scenario.node[22].nic.mac1609_4 	ReceivedUnicastPackets 	0
scalar warning_scenario.node[22].nic.mac1609_4 	ReceivedBroadcasts 	610
scalar warning_scenario.node[22].nic.mac1609_4 	SentPackets 	514
scalar warning_scenario.node[22].nic.mac1609_4 	SNIRLostPackets 	1605
scalar warning_scenario.node[22].nic.mac1609_4 	RXTXLostPackets 	0
scalar warning_scenario.node[22].nic.mac1609_4 	TotalLostPackets 	1605
scalar warning_scenario.node[22].nic.mac1609_4 	DroppedPacketsInMac 	0
scalar warning_scenario.node[22].nic.mac1609_4 	TooLittleTime 	0
scalar warning_scenario.node[22].nic.mac1609_4 	TimesIntoBackoff 	514
scalar warning_scenario.node[22].nic.mac1609_4 	SlotsBackoff 	761
scalar warning_scenario.node[22].nic.mac1609_4 	NumInternalContention 	0
scalar warning_scenario.node[22].nic.mac1609_4 	totalBusyTime 	0.371658
scalar warning_scenario.node[22].veinsmobility 	startTime 	22258
scalar warning_scenario.node[22].veinsmobility 	totalTime 	513
scalar warning_scenario.node[22].veinsmobility 	stopTime 	22772
scalar warning_scenario.node[22].veinsmobility 	minSpeed 	1.5710295354482
scalar warning_scenario.node[22].veinsmobility 	maxSpeed 	24.404960658199
scalar warning_scenario.node[22].veinsmobility 	totalDistance 	8904.1956393883
scalar warning_scenario.node[22].veinsmobility 	totalCO2Emission 	1653.8285092139
scalar warning_scenario.node[7].nic.phy80211p 	busyTime 	0.00071221436227232
scalar warning_scenario.node[7].nic.mac1609_4 	ReceivedUnicastPackets 	0
scalar warning_scenario.node[7].nic.mac1609_4 	ReceivedBroadcasts 	3374
scalar warning_scenario.node[7].nic.mac1609_4 	SentPackets 	933
scalar warning_scenario.node[7].nic.mac1609_4 	SNIRLostPackets 	1512
scalar warning_scenario.node[7].nic.mac1609_4 	RXTXLostPackets 	0
scalar warning_scenario.node[7].nic.mac1609_4 	TotalLostPackets 	1512
scalar warning_scenario.node[7].nic.mac1609_4 	DroppedPacketsInMac 	0
scalar warning_scenario.node[7].nic.mac1609_4 	TooLittleTime 	0
scalar warning_scenario.node[7].nic.mac1609_4 	TimesIntoBackoff 	933
scalar warning_scenario.node[7].nic.mac1609_4 	SlotsBackoff 	1417
scalar warning_scenario.node[7].nic.mac1609_4 	NumInternalContention 	0
scalar warning_scenario.node[7].nic.mac1609_4 	totalBusyTime 	0.792317
scalar warning_scenario.node[7].veinsmobility 	startTime 	21859
scalar warning_scenario.node[7].veinsmobility 	totalTime 	932
scalar warning_scenario.node[7].veinsmobility 	stopTime 	22792
scalar warning_scenario.node[7].veinsmobility 	minSpeed 	2.5197616993253e-15
scalar warning_scenario.node[7].veinsmobility 	maxSpeed 	26.13055957663
scalar warning_scenario.node[7].veinsmobility 	totalDistance 	15606.873626353
scalar warning_scenario.node[7].veinsmobility 	totalCO2Emission 	2914.5402630699
scalar warning_scenario.node[29].nic.phy80211p 	busyTime 	0.0014549433962265
scalar warning_scenario.node[29].nic.mac1609_4 	ReceivedUnicastPackets 	0
scalar warning_scenario.node[29].nic.mac1609_4 	ReceivedBroadcasts 	2225
scalar warning_scenario.node[29].nic.mac1609_4 	SentPackets 	371
scalar warning_scenario.node[29].nic.mac1609_4 	SNIRLostPackets 	1744
scalar warning_scenario.node[29].nic.mac1609_4 	RXTXLostPackets 	0
scalar warning_scenario.node[29].nic.mac1609_4 	TotalLostPackets 	1744
scalar warning_scenario.node[29].nic.mac1609_4 	DroppedPacketsInMac 	0
scalar warning_scenario.node[29].nic.mac1609_4 	TooLittleTime 	0
scalar warning_scenario.node[29].nic.mac1609_4 	TimesIntoBackoff 	371
scalar warning_scenario.node[29].nic.mac1609_4 	SlotsBackoff 	546
scalar warning_scenario.node[29].nic.mac1609_4 	NumInternalContention 	0
scalar warning_scenario.node[29].nic.mac1609_4 	totalBusyTime 	0.590611
scalar warning_scenario.node[29].veinsmobility 	startTime 	22461
scalar warning_scenario.node[29].veinsmobility 	totalTime 	370
scalar warning_scenario.node[29].veinsmobility 	stopTime 	22832
scalar warning_scenario.node[29].veinsmobility 	minSpeed 	1.0771878287506e-13
scalar warning_scenario.node[29].veinsmobility 	maxSpeed 	16.151532366886
scalar warning_scenario.node[29].veinsmobility 	totalDistance 	4362.9376349912
scalar warning_scenario.node[29].veinsmobility 	totalCO2Emission 	1064.9252181805
scalar warning_scenario.node[24].nic.phy80211p 	busyTime 	0.00062667166979364
scalar warning_scenario.node[24].nic.mac1609_4 	ReceivedUnicastPackets 	0
scalar warning_scenario.node[24].nic.mac1609_4 	ReceivedBroadcasts 	874
scalar warning_scenario.node[24].nic.mac1609_4 	SentPackets 	533
scalar warning_scenario.node[24].nic.mac1609_4 	SNIRLostPackets 	1582
scalar warning_scenario.node[24].nic.mac1609_4 	RXTXLostPackets 	0
scalar warning_scenario.node[24].nic.mac1609_4 	TotalLostPackets 	1582
scalar warning_scenario.node[24].nic.mac1609_4 	DroppedPacketsInMac 	0
scalar warning_scenario.node[24].nic.mac1609_4 	TooLittleTime 	0
scalar warning_scenario.node[24].nic.mac1609_4 	TimesIntoBackoff 	533
scalar warning_scenario.node[24].nic.mac1609_4 	SlotsBackoff 	793
scalar warning_scenario.node[24].nic.mac1609_4 	NumInternalContention 	0
scalar warning_scenario.node[24].nic.mac1609_4 	totalBusyTime 	0.407037
scalar warning_scenario.node[24].veinsmobility 	startTime 	22302
scalar warning_scenario.node[24].veinsmobility 	totalTime 	532
scalar warning_scenario.node[24].veinsmobility 	stopTime 	22835
scalar warning_scenario.node[24].veinsmobility 	minSpeed 	2.9055047689154e-15
scalar warning_scenario.node[24].veinsmobility 	maxSpeed 	29.211034371402
scalar warning_scenario.node[24].veinsmobility 	totalDistance 	6918.6086146903
scalar warning_scenario.node[24].veinsmobility 	totalCO2Emission 	1597.3660552136
scalar warning_scenario.node[30].nic.phy80211p 	busyTime 	0.0016921263157897
scalar warning_scenario.node[30].nic.mac1609_4 	ReceivedUnicastPackets 	0
scalar warning_scenario.node[30].nic.mac1609_4 	ReceivedBroadcasts 	3535
scalar warning_scenario.node[30].nic.mac1609_4 	SentPackets 	380
scalar warning_scenario.node[30].nic.mac1609_4 	SNIRLostPackets 	1193
scalar warning_scenario.node[30].nic.mac1609_4 	RXTXLostPackets 	0
scalar warning_scenario.node[30].nic.mac1609_4 	TotalLostPackets 	1193
scalar warning_scenario.node[30].nic.mac1609_4 	DroppedPacketsInMac 	0
scalar warning_scenario.node[30].nic.mac1609_4 	TooLittleTime 	0
scalar warning_scenario.node[30].nic.mac1609_4 	TimesIntoBackoff 	380
scalar warning_scenario.node[30].nic.mac1609_4 	SlotsBackoff 	586
scalar warning_scenario.node[30].nic.mac1609_4 	NumInternalContention 	0
scalar warning_scenario.node[30].nic.mac1609_4 	totalBusyTime 	0.695068
scalar warning_scenario.node[30].veinsmobility 	startTime 	22489
scalar warning_scenario.node[30].veinsmobility 	totalTime 	379
scalar warning_scenario.node[30].veinsmobility 	stopTime 	22869
scalar warning_scenario.node[30].veinsmobility 	minSpeed 	8.8957550783449e-13
scalar warning_scenario.node[30].veinsmobility 	maxSpeed 	20.838763674408
scalar warning_scenario.node[30].veinsmobility 	totalDistance 	3968.3989218634
scalar warning_scenario.node[30].veinsmobility 	totalCO2Emission 	917.95871760099
scalar warning_scenario.node[25].nic.phy80211p 	busyTime 	0.0013602377622379
scalar warning_scenario.node[25].nic.mac1609_4 	ReceivedUnicastPackets 	0
scalar warning_scenario.node[25].nic.mac1609_4 	ReceivedBroadcasts 	2756
scalar warning_scenario.node[25].nic.mac1609_4 	SentPackets 	572
scalar warning_scenario.node[25].nic.mac1609_4 	SNIRLostPackets 	2965
scalar warning_scenario.node[25].nic.mac1609_4 	RXTXLostPackets 	0
scalar warning_scenario.node[25].nic.mac1609_4 	TotalLostPackets 	2965
scalar warning_scenario.node[25].nic.mac1609_4 	DroppedPacketsInMac 	0
scalar warning_scenario.node[25].nic.mac1609_4 	TooLittleTime 	0
scalar warning_scenario.node[25].nic.mac1609_4 	TimesIntoBackoff 	572
scalar warning_scenario.node[25].nic.mac1609_4 	SlotsBackoff 	869
scalar warning_scenario.node[25].nic.mac1609_4 	NumInternalContention 	0
scalar warning_scenario.node[25].nic.mac1609_4 	totalBusyTime 	0.85642
scalar warning_scenario.node[25].veinsmobility 	startTime 	22317
scalar warning_scenario.node[25].veinsmobility 	totalTime 	571
scalar warning_scenario.node[25].veinsmobility 	stopTime 	22889
scalar warning_scenario.node[25].veinsmobility 	minSpeed 	0
scalar warning_scenario.node[25].veinsmobility 	maxSpeed 	15.270209966505
scalar warning_scenario.node[25].veinsmobility 	totalDistance 	4948.0588919318
scalar warning_scenario.node[25].veinsmobility 	totalCO2Emission 	1325.916951144
scalar warning_scenario.node[27].nic.phy80211p 	busyTime 	0.0015412461538463
scalar warning_scenario.node[27].nic.mac1609_4 	ReceivedUnicastPackets 	0
scalar warning_scenario.node[27].nic.mac1609_4 	ReceivedBroadcasts 	4065
scalar warning_scenario.node[27].nic.mac1609_4 	SentPackets 	520
scalar warning_scenario.node[27].nic.mac1609_4 	SNIRLostPackets 	1828
scalar warning_scenario.node[27].nic.mac1609_4 	RXTXLostPackets 	0
scalar warning_scenario.node[27].nic.mac1609_4 	TotalLostPackets 	1828
scalar warning_scenario.node[27].nic.mac1609_4 	DroppedPacketsInMac 	0
scalar warning_scenario.node[27].nic.mac1609_4 	TooLittleTime 	0
scalar warning_scenario.node[27].nic.mac1609_4 	TimesIntoBackoff 	520
scalar warning_scenario.node[27].nic.mac1609_4 	SlotsBackoff 	774
scalar warning_scenario.node[27].nic.mac1609_4 	NumInternalContention 	0
scalar warning_scenario.node[27].nic.mac1609_4 	totalBusyTime 	0.872688
scalar warning_scenario.node[27].veinsmobility 	startTime 	22371
scalar warning_scenario.node[27].veinsmobility 	totalTime 	519
scalar warning_scenario.node[27].veinsmobility 	stopTime 	22891
scalar warning_scenario.node[27].veinsmobility 	minSpeed 	2.707051984351e-15
scalar warning_scenario.node[27].veinsmobility 	maxSpeed 	15.637165718602
scalar warning_scenario.node[27].veinsmobility 	totalDistance 	4712.8703650568
scalar warning_scenario.node[27].veinsmobility 	totalCO2Emission 	1293.3240994032
scalar warning_scenario.node[18].nic.phy80211p 	busyTime 	0.00045911659807958
scalar warning_scenario.node[18].nic.mac1609_4 	ReceivedUnicastPackets 	0
scalar warning_scenario.node[18].nic.mac1609_4 	ReceivedBroadcasts 	985
scalar warning_scenario.node[18].nic.mac1609_4 	SentPackets 	729
scalar warning_scenario.node[18].nic.mac1609_4 	SNIRLostPackets 	1476
scalar warning_scenario.node[18].nic.mac1609_4 	RXTXLostPackets 	0
scalar warning_scenario.node[18].nic.mac1609_4 	TotalLostPackets 	1476
scalar warning_scenario.node[18].nic.mac1609_4 	DroppedPacketsInMac 	0
scalar warning_scenario.node[18].nic.mac1609_4 	TooLittleTime 	0
scalar warning_scenario.node[18].nic.mac1609_4 	TimesIntoBackoff 	729
scalar warning_scenario.node[18].nic.mac1609_4 	SlotsBackoff 	1074
scalar warning_scenario.node[18].nic.mac1609_4 	NumInternalContention 	0
scalar warning_scenario.node[18].nic.mac1609_4 	totalBusyTime 	0.434569
scalar warning_scenario.node[18].veinsmobility 	startTime 	22162
scalar warning_scenario.node[18].veinsmobility 	totalTime 	728
scalar warning_scenario.node[18].veinsmobility 	stopTime 	22891
scalar warning_scenario.node[18].veinsmobility 	minSpeed 	0
scalar warning_scenario.node[18].veinsmobility 	maxSpeed 	18.019039313301
scalar warning_scenario.node[18].veinsmobility 	totalDistance 	6707.798750227
scalar warning_scenario.node[18].veinsmobility 	totalCO2Emission 	1564.0977216096
scalar warning_scenario.node[1].nic.phy80211p 	busyTime 	0.00011021243115657
scalar warning_scenario.node[1].nic.mac1609_4 	ReceivedUnicastPackets 	0
scalar warning_scenario.node[1].nic.mac1609_4 	ReceivedBroadcasts 	277
scalar warning_scenario.node[1].nic.mac1609_4 	SentPackets 	1271
scalar warning_scenario.node[1].nic.mac1609_4 	SNIRLostPackets 	753
scalar warning_scenario.node[1].nic.mac1609_4 	RXTXLostPackets 	0
scalar warning_scenario.node[1].nic.mac1609_4 	TotalLostPackets 	753
scalar warning_scenario.node[1].nic.mac1609_4 	DroppedPacketsInMac 	0
scalar warning_scenario.node[1].nic.mac1609_4 	TooLittleTime 	0
scalar warning_scenario.node[1].nic.mac1609_4 	TimesIntoBackoff 	1271
scalar warning_scenario.node[1].nic.mac1609_4 	SlotsBackoff 	1931
scalar warning_scenario.node[1].nic.mac1609_4 	NumInternalContention 	0
scalar warning_scenario.node[1].nic.mac1609_4 	totalBusyTime 	0.314207
scalar warning_scenario.node[1].veinsmobility 	startTime 	21666
scalar warning_scenario.node[1].veinsmobility 	totalTime 	1270
scalar warning_scenario.node[1].veinsmobility 	stopTime 	22937
scalar warning_scenario.node[1].veinsmobility 	minSpeed 	0
scalar warning_scenario.node[1].veinsmobility 	maxSpeed 	24.531251967443
scalar warning_scenario.node[1].veinsmobility 	totalDistance 	18325.866886713
scalar warning_scenario.node[1].veinsmobility 	totalCO2Emission 	3462.0446300796
scalar warning_scenario.node[14].nic.phy80211p 	busyTime 	0.001091835140998
scalar warning_scenario.node[14].nic.mac1609_4 	ReceivedUnicastPackets 	0
scalar warning_scenario.node[14].nic.mac1609_4 	ReceivedBroadcasts 	4537
scalar warning_scenario.node[14].nic.mac1609_4 	SentPackets 	922
scalar warning_scenario.node[14].nic.mac1609_4 	SNIRLostPackets 	2865
scalar warning_scenario.node[14].nic.mac1609_4 	RXTXLostPackets 	0
scalar warning_scenario.node[14].nic.mac1609_4 	TotalLostPackets 	2865
scalar warning_scenario.node[14].nic.mac1609_4 	DroppedPacketsInMac 	0
scalar warning_scenario.node[14].nic.mac1609_4 	TooLittleTime 	0
scalar warning_scenario.node[14].nic.mac1609_4 	TimesIntoBackoff 	922
scalar warning_scenario.node[14].nic.mac1609_4 	SlotsBackoff 	1387
scalar warning_scenario.node[14].nic.mac1609_4 	NumInternalContention 	0
scalar warning_scenario.node[14].nic.mac1609_4 	totalBusyTime 	1.132986
scalar warning_scenario.node[14].veinsmobility 	startTime 	22036
scalar warning_scenario.node[14].veinsmobility 	totalTime 	921
scalar warning_scenario.node[14].veinsmobility 	stopTime 	22958
scalar warning_scenario.node[14].veinsmobility 	minSpeed 	0
scalar warning_scenario.node[14].veinsmobility 	maxSpeed 	14.51155380852
scalar warning_scenario.node[14].veinsmobility 	totalDistance 	7179.9446715897
scalar warning_scenario.node[14].veinsmobility 	totalCO2Emission 	1790.4567427646
scalar warning_scenario.node[28].nic.phy80211p 	busyTime 	0.0014611707317075
scalar warning_scenario.node[28].nic.mac1609_4 	ReceivedUnicastPackets 	0
scalar warning_scenario.node[28].nic.mac1609_4 	ReceivedBroadcasts 	3751
scalar warning_scenario.node[28].nic.mac1609_4 	SentPackets 	574
scalar warning_scenario.node[28].nic.mac1609_4 	SNIRLostPackets 	2416
scalar warning_scenario.node[28].nic.mac1609_4 	RXTXLostPackets 	0
scalar warning_scenario.node[28].nic.mac1609_4 	TotalLostPackets 	2416
scalar warning_scenario.node[28].nic.mac1609_4 	DroppedPacketsInMac 	0
scalar warning_scenario.node[28].nic.mac1609_4 	TooLittleTime 	0
scalar warning_scenario.node[28].nic.mac1609_4 	TimesIntoBackoff 	574
scalar warning_scenario.node[28].nic.mac1609_4 	SlotsBackoff 	821
scalar warning_scenario.node[28].nic.mac1609_4 	NumInternalContention 	0
scalar warning_scenario.node[28].nic.mac1609_4 	totalBusyTime 	0.91735
scalar warning_scenario.node[28].veinsmobility 	startTime 	22399
scalar warning_scenario.node[28].veinsmobility 	totalTime 	573
scalar warning_scenario.node[28].veinsmobility 	stopTime 	22973
scalar warning_scenario.node[28].veinsmobility 	minSpeed 	0
scalar warning_scenario.node[28].veinsmobility 	maxSpeed 	16.227873344233
scalar warning_scenario.node[28].veinsmobility 	totalDistance 	6106.8553057449
scalar warning_scenario.node[28].veinsmobility 	totalCO2Emission 	1551.2644934649
scalar warning_scenario.node[16].nic.phy80211p 	busyTime 	0.00097254782608708
scalar warning_scenario.node[16].nic.mac1609_4 	ReceivedUnicastPackets 	0
scalar warning_scenario.node[16].nic.mac1609_4 	ReceivedBroadcasts 	2945
scalar warning_scenario.node[16].nic.mac1609_4 	SentPackets 	920
scalar warning_scenario.node[16].nic.mac1609_4 	SNIRLostPackets 	3634
scalar warning_scenario.node[16].nic.mac1609_4 	RXTXLostPackets 	0
scalar warning_scenario.node[16].nic.mac1609_4 	TotalLostPackets 	3634
scalar warning_scenario.node[16].nic.mac1609_4 	DroppedPacketsInMac 	0
scalar warning_scenario.node[16].nic.mac1609_4 	TooLittleTime 	0
scalar warning_scenario.node[16].nic.mac1609_4 	TimesIntoBackoff 	920
scalar warning_scenario.node[16].nic.mac1609_4 	SlotsBackoff 	1298
scalar warning_scenario.node[16].nic.mac1609_4 	NumInternalContention 	0
scalar warning_scenario.node[16].nic.mac1609_4 	totalBusyTime 	1.020784
scalar warning_scenario.node[16].veinsmobility 	startTime 	22067
scalar warning_scenario.node[16].veinsmobility 	totalTime 	919
scalar warning_scenario.node[16].veinsmobility 	stopTime 	22987
scalar warning_scenario.node[16].veinsmobility 	minSpeed 	0
scalar warning_scenario.node[16].veinsmobility 	maxSpeed 	31.58661967432
scalar warning_scenario.node[16].veinsmobility 	totalDistance 	13189.887150561
scalar warning_scenario.node[16].veinsmobility 	totalCO2Emission 	2718.0441440617
scalar warning_scenario.node[11].nic.phy80211p 	busyTime 	0.00070824409448827
scalar warning_scenario.node[11].nic.mac1609_4 	ReceivedUnicastPackets 	0
scalar warning_scenario.node[11].nic.mac1609_4 	ReceivedBroadcasts 	2318
scalar warning_scenario.node[11].nic.mac1609_4 	SentPackets 	1016
scalar warning_scenario.node[11].nic.mac1609_4 	SNIRLostPackets 	2973
scalar warning_scenario.node[11].nic.mac1609_4 	RXTXLostPackets 	0
scalar warning_scenario.node[11].nic.mac1609_4 	TotalLostPackets 	2973
scalar warning_scenario.node[11].nic.mac1609_4 	DroppedPacketsInMac 	0
scalar warning_scenario.node[11].nic.mac1609_4 	TooLittleTime 	0
scalar warning_scenario.node[11].nic.mac1609_4 	TimesIntoBackoff 	1016
scalar warning_scenario.node[11].nic.mac1609_4 	SlotsBackoff 	1517
scalar warning_scenario.node[11].nic.mac1609_4 	NumInternalContention 	0
scalar warning_scenario.node[11].nic.mac1609_4 	totalBusyTime 	0.858768
scalar warning_scenario.node[11].veinsmobility 	startTime 	21975
scalar warning_scenario.node[11].veinsmobility 	totalTime 	1015
scalar warning_scenario.node[11].veinsmobility 	stopTime 	22991
scalar warning_scenario.node[11].veinsmobility 	minSpeed 	0
scalar warning_scenario.node[11].veinsmobility 	maxSpeed 	24.47355930287
scalar warning_scenario.node[11].veinsmobility 	totalDistance 	15247.589052174
scalar warning_scenario.node[11].veinsmobility 	totalCO2Emission 	2835.675035019
scalar warning_scenario.node[31].nic.phy80211p 	busyTime 	0.0016575532359083
scalar warning_scenario.node[31].nic.mac1609_4 	ReceivedUnicastPackets 	0
scalar warning_scenario.node[31].nic.mac1609_4 	ReceivedBroadcasts 	3595
scalar warning_scenario.node[31].nic.mac1609_4 	SentPackets 	479
scalar warning_scenario.node[31].nic.mac1609_4 	SNIRLostPackets 	2243
scalar warning_scenario.node[31].nic.mac1609_4 	RXTXLostPackets 	0
scalar warning_scenario.node[31].nic.mac1609_4 	TotalLostPackets 	2243
scalar warning_scenario.node[31].nic.mac1609_4 	DroppedPacketsInMac 	0
scalar warning_scenario.node[31].nic.mac1609_4 	TooLittleTime 	0
scalar warning_scenario.node[31].nic.mac1609_4 	TimesIntoBackoff 	479
scalar warning_scenario.node[31].nic.mac1609_4 	SlotsBackoff 	736
scalar warning_scenario.node[31].nic.mac1609_4 	NumInternalContention 	0
scalar warning_scenario.node[31].nic.mac1609_4 	totalBusyTime 	0.859591
scalar warning_scenario.node[31].veinsmobility 	startTime 	22539
scalar warning_scenario.node[31].veinsmobility 	totalTime 	478
scalar warning_scenario.node[31].veinsmobility 	stopTime 	23018
scalar warning_scenario.node[31].veinsmobility 	minSpeed 	0
scalar warning_scenario.node[31].veinsmobility 	maxSpeed 	14.803013387566
scalar warning_scenario.node[31].veinsmobility 	totalDistance 	4347.1555840952
scalar warning_scenario.node[31].veinsmobility 	totalCO2Emission 	1130.3096127456
scalar warning_scenario.node[15].nic.phy80211p 	busyTime 	0.00075096825396834
scalar warning_scenario.node[15].nic.mac1609_4 	ReceivedUnicastPackets 	0
scalar warning_scenario.node[15].nic.mac1609_4 	ReceivedBroadcasts 	3325
scalar warning_scenario.node[15].nic.mac1609_4 	SentPackets 	1008
scalar warning_scenario.node[15].nic.mac1609_4 	SNIRLostPackets 	2241
scalar warning_scenario.node[15].nic.mac1609_4 	RXTXLostPackets 	0
scalar warning_scenario.node[15].nic.mac1609_4 	TotalLostPackets 	2241
scalar warning_scenario.node[15].nic.mac1609_4 	DroppedPacketsInMac 	0
scalar warning_scenario.node[15].nic.mac1609_4 	TooLittleTime 	0
scalar warning_scenario.node[15].nic.mac1609_4 	TimesIntoBackoff 	1008
scalar warning_scenario.node[15].nic.mac1609_4 	SlotsBackoff 	1534
scalar warning_scenario.node[15].nic.mac1609_4 	NumInternalContention 	0
scalar warning_scenario.node[15].nic.mac1609_4 	totalBusyTime 	0.895072
scalar warning_scenario.node[15].veinsmobility 	startTime 	22041
scalar warning_scenario.node[15].veinsmobility 	totalTime 	1007
scalar warning_scenario.node[15].veinsmobility 	stopTime 	23049
scalar warning_scenario.node[15].veinsmobility 	minSpeed 	0
scalar warning_scenario.node[15].veinsmobility 	maxSpeed 	25.766155684984
scalar warning_scenario.node[15].veinsmobility 	totalDistance 	10635.201458898
scalar warning_scenario.node[15].veinsmobility 	totalCO2Emission 	2423.4924503523
scalar warning_scenario.node[21].nic.phy80211p 	busyTime 	0.0011028333333335
scalar warning_scenario.node[21].nic.mac1609_4 	ReceivedUnicastPackets 	0
scalar warning_scenario.node[21].nic.mac1609_4 	ReceivedBroadcasts 	4590
scalar warning_scenario.node[21].nic.mac1609_4 	SentPackets 	816
scalar warning_scenario.node[21].nic.mac1609_4 	SNIRLostPackets 	2027
scalar warning_scenario.node[21].nic.mac1609_4 	RXTXLostPackets 	0
scalar warning_scenario.node[21].nic.mac1609_4 	TotalLostPackets 	2027
scalar warning_scenario.node[21].nic.mac1609_4 	DroppedPacketsInMac 	0
scalar warning_scenario.node[21].nic.mac1609_4 	TooLittleTime 	0
scalar warning_scenario.node[21].nic.mac1609_4 	TimesIntoBackoff 	816
scalar warning_scenario.node[21].nic.mac1609_4 	SlotsBackoff 	1206
scalar warning_scenario.node[21].nic.mac1609_4 	NumInternalContention 	0
scalar warning_scenario.node[21].nic.mac1609_4 	totalBusyTime 	1.011704
scalar warning_scenario.node[21].veinsmobility 	startTime 	22246
scalar warning_scenario.node[21].veinsmobility 	totalTime 	815
scalar warning_scenario.node[21].veinsmobility 	stopTime 	23062
scalar warning_scenario.node[21].veinsmobility 	minSpeed 	0
scalar warning_scenario.node[21].veinsmobility 	maxSpeed 	34.845449474911
scalar warning_scenario.node[21].veinsmobility 	totalDistance 	9664.6990885615
scalar warning_scenario.node[21].veinsmobility 	totalCO2Emission 	2261.016177541
scalar warning_scenario.node[4].nic.phy80211p 	busyTime 	0.0004914545454546
scalar warning_scenario.node[4].nic.mac1609_4 	ReceivedUnicastPackets 	0
scalar warning_scenario.node[4].nic.mac1609_4 	ReceivedBroadcasts 	2857
scalar warning_scenario.node[4].nic.mac1609_4 	SentPackets 	1320
scalar warning_scenario.node[4].nic.mac1609_4 	SNIRLostPackets 	1913
scalar warning_scenario.node[4].nic.mac1609_4 	RXTXLostPackets 	0
scalar warning_scenario.node[4].nic.mac1609_4 	TotalLostPackets 	1913
scalar warning_scenario.node[4].nic.mac1609_4 	DroppedPacketsInMac 	0
scalar warning_scenario.node[4].nic.mac1609_4 	TooLittleTime 	0
scalar warning_scenario.node[4].nic.mac1609_4 	TimesIntoBackoff 	1320
scalar warning_scenario.node[4].nic.mac1609_4 	SlotsBackoff 	1959
scalar warning_scenario.node[4].nic.mac1609_4 	NumInternalContention 	0
scalar warning_scenario.node[4].nic.mac1609_4 	totalBusyTime 	0.82956
scalar warning_scenario.node[4].veinsmobility 	startTime 	21746
scalar warning_scenario.node[4].veinsmobility 	totalTime 	1319
scalar warning_scenario.node[4].veinsmobility 	stopTime 	23066
scalar warning_scenario.node[4].veinsmobility 	minSpeed 	0
scalar warning_scenario.node[4].veinsmobility 	maxSpeed 	28.820491529912
scalar warning_scenario.node[4].veinsmobility 	totalDistance 	17131.033069385
scalar warning_scenario.node[4].veinsmobility 	totalCO2Emission 	3578.5906664329
scalar warning_scenario.node[35].nic.phy80211p 	busyTime 	0.0015970183727036
scalar warning_scenario.node[35].nic.mac1609_4 	ReceivedUnicastPackets 	0
scalar warning_scenario.node[35].nic.mac1609_4 	ReceivedBroadcasts 	2419
scalar warning_scenario.node[35].nic.mac1609_4 	SentPackets 	381
scalar warning_scenario.node[35].nic.mac1609_4 	SNIRLostPackets 	2055
scalar warning_scenario.node[35].nic.mac1609_4 	RXTXLostPackets 	0
scalar warning_scenario.node[35].nic.mac1609_4 	TotalLostPackets 	2055
scalar warning_scenario.node[35].nic.mac1609_4 	DroppedPacketsInMac 	0
scalar warning_scenario.node[35].nic.mac1609_4 	TooLittleTime 	0
scalar warning_scenario.node[35].nic.mac1609_4 	TimesIntoBackoff 	381
scalar warning_scenario.node[35].nic.mac1609_4 	SlotsBackoff 	574
scalar warning_scenario.node[35].nic.mac1609_4 	NumInternalContention 	0
scalar warning_scenario.node[35].nic.mac1609_4 	totalBusyTime 	0.660661
scalar warning_scenario.node[35].veinsmobility 	startTime 	22703
scalar warning_scenario.node[35].veinsmobility 	totalTime 	380
scalar warning_scenario.node[35].veinsmobility 	stopTime 	23084
scalar warning_scenario.node[35].veinsmobility 	minSpeed 	2.7169532731057e-15
scalar warning_scenario.node[35].veinsmobility 	maxSpeed 	16.375103569247
scalar warning_scenario.node[35].veinsmobility 	totalDistance 	4341.2028864876
scalar warning_scenario.node[35].veinsmobility 	totalCO2Emission 	1015.0284013862
scalar warning_scenario.node[20].nic.phy80211p 	busyTime 	0.00057994508009158
scalar warning_scenario.node[20].nic.mac1609_4 	ReceivedUnicastPackets 	0
scalar warning_scenario.node[20].nic.mac1609_4 	ReceivedBroadcasts 	2282
scalar warning_scenario.node[20].nic.mac1609_4 	SentPackets 	874
scalar warning_scenario.node[20].nic.mac1609_4 	SNIRLostPackets 	1445
scalar warning_scenario.node[20].nic.mac1609_4 	RXTXLostPackets 	0
scalar warning_scenario.node[20].nic.mac1609_4 	TotalLostPackets 	1445
scalar warning_scenario.node[20].nic.mac1609_4 	DroppedPacketsInMac 	0
scalar warning_scenario.node[20].nic.mac1609_4 	TooLittleTime 	0
scalar warning_scenario.node[20].nic.mac1609_4 	TimesIntoBackoff 	874
scalar warning_scenario.node[20].nic.mac1609_4 	SlotsBackoff 	1281
scalar warning_scenario.node[20].nic.mac1609_4 	NumInternalContention 	0
scalar warning_scenario.node[20].nic.mac1609_4 	totalBusyTime 	0.62661
scalar warning_scenario.node[20].veinsmobility 	startTime 	22226
scalar warning_scenario.node[20].veinsmobility 	totalTime 	873
scalar warning_scenario.node[20].veinsmobility 	stopTime 	23100
scalar warning_scenario.node[20].veinsmobility 	minSpeed 	2.3452700737165
scalar warning_scenario.node[20].veinsmobility 	maxSpeed 	33.486121438378
scalar warning_scenario.node[20].veinsmobility 	totalDistance 	15741.847251978
scalar warning_scenario.node[20].veinsmobility 	totalCO2Emission 	3120.7748758875
scalar warning_scenario.node[33].nic.phy80211p 	busyTime 	0.00096826086956529
scalar warning_scenario.node[33].nic.mac1609_4 	ReceivedUnicastPackets 	0
scalar warning_scenario.node[33].nic.mac1609_4 	ReceivedBroadcasts 	2254
scalar warning_scenario.node[33].nic.mac1609_4 	SentPackets 	460
scalar warning_scenario.node[33].nic.mac1609_4 	SNIRLostPackets 	1021
scalar warning_scenario.node[33].nic.mac1609_4 	RXTXLostPackets 	0
scalar warning_scenario.node[33].nic.mac1609_4 	TotalLostPackets 	1021
scalar warning_scenario.node[33].nic.mac1609_4 	DroppedPacketsInMac 	0
scalar warning_scenario.node[33].nic.mac1609_4 	TooLittleTime 	0
scalar warning_scenario.node[33].nic.mac1609_4 	TimesIntoBackoff 	460
scalar warning_scenario.node[33].nic.mac1609_4 	SlotsBackoff 	641
scalar warning_scenario.node[33].nic.mac1609_4 	NumInternalContention 	0
scalar warning_scenario.node[33].nic.mac1609_4 	totalBusyTime 	0.50842
scalar warning_scenario.node[33].veinsmobility 	startTime 	22644
scalar warning_scenario.node[33].veinsmobility 	totalTime 	459
scalar warning_scenario.node[33].veinsmobility 	stopTime 	23104
scalar warning_scenario.node[33].veinsmobility 	minSpeed 	2.9645735112041e-15
scalar warning_scenario.node[33].veinsmobility 	maxSpeed 	27.970318324782
scalar warning_scenario.node[33].veinsmobility 	totalDistance 	7721.9104715198
scalar warning_scenario.node[33].veinsmobility 	totalCO2Emission 	1603.6214720457
scalar warning_scenario.node[34].nic.phy80211p 	busyTime 	0.0017157805907175
scalar warning_scenario.node[34].nic.mac1609_4 	ReceivedUnicastPackets 	0
scalar warning_scenario.node[34].nic.mac1609_4 	ReceivedBroadcasts 	3523
scalar warning_scenario.node[34].nic.mac1609_4 	SentPackets 	474
scalar warning_scenario.node[34].nic.mac1609_4 	SNIRLostPackets 	2457
scalar warning_scenario.node[34].nic.mac1609_4 	RXTXLostPackets 	0
scalar warning_scenario.node[34].nic.mac1609_4 	TotalLostPackets 	2457
scalar warning_scenario.node[34].nic.mac1609_4 	DroppedPacketsInMac 	0
scalar warning_scenario.node[34].nic.mac1609_4 	TooLittleTime 	0
scalar warning_scenario.node[34].nic.mac1609_4 	TimesIntoBackoff 	474
scalar warning_scenario.node[34].nic.mac1609_4 	SlotsBackoff 	702
scalar warning_scenario.node[34].nic.mac1609_4 	NumInternalContention 	0
scalar warning_scenario.node[34].nic.mac1609_4 	totalBusyTime 	0.878218
scalar warning_scenario.node[34].veinsmobility 	startTime 	22677
scalar warning_scenario.node[34].veinsmobility 	totalTime 	473
scalar warning_scenario.node[34].veinsmobility 	stopTime 	23151
scalar warning_scenario.node[34].veinsmobility 	minSpeed 	6.678169001505e-16
scalar warning_scenario.node[34].veinsmobility 	maxSpeed 	13.833450855331
scalar warning_scenario.node[34].veinsmobility 	totalDistance 	4532.3092189823
scalar warning_scenario.node[34].veinsmobility 	totalCO2Emission 	1149.6786742471
scalar warning_scenario.node[36].nic.phy80211p 	busyTime 	0.001916621809745
scalar warning_scenario.node[36].nic.mac1609_4 	ReceivedUnicastPackets 	0
scalar warning_scenario.node[36].nic.mac1609_4 	ReceivedBroadcasts 	3141
scalar warning_scenario.node[36].nic.mac1609_4 	SentPackets 	431
scalar warning_scenario.node[36].nic.mac1609_4 	SNIRLostPackets 	2933
scalar warning_scenario.node[36].nic.mac1609_4 	RXTXLostPackets 	0
scalar warning_scenario.node[36].nic.mac1609_4 	TotalLostPackets 	2933
scalar warning_scenario.node[36].nic.mac1609_4 	DroppedPacketsInMac 	0
scalar warning_scenario.node[36].nic.mac1609_4 	TooLittleTime 	0
scalar warning_scenario.node[36].nic.mac1609_4 	TimesIntoBackoff 	431
scalar warning_scenario.node[36].nic.mac1609_4 	SlotsBackoff 	645
scalar warning_scenario.node[36].nic.mac1609_4 	NumInternalContention 	0
scalar warning_scenario.node[36].nic.mac1609_4 	totalBusyTime 	0.885111
scalar warning_scenario.node[36].veinsmobility 	startTime 	22758
scalar warning_scenario.node[36].veinsmobility 	totalTime 	430
scalar warning_scenario.node[36].veinsmobility 	stopTime 	23189
scalar warning_scenario.node[36].veinsmobility 	minSpeed 	6.3047535371315e-16
scalar warning_scenario.node[36].veinsmobility 	maxSpeed 	12.148187935712
scalar warning_scenario.node[36].veinsmobility 	totalDistance 	3209.0671899031
scalar warning_scenario.node[36].veinsmobility 	totalCO2Emission 	829.64230856796
scalar warning_scenario.node[13].nic.phy80211p 	busyTime 	0.00071425521267732
scalar warning_scenario.node[13].nic.mac1609_4 	ReceivedUnicastPackets 	0
scalar warning_scenario.node[13].nic.mac1609_4 	ReceivedBroadcasts 	1213
scalar warning_scenario.node[13].nic.mac1609_4 	SentPackets 	1199
scalar warning_scenario.node[13].nic.mac1609_4 	SNIRLostPackets 	5084
scalar warning_scenario.node[13].nic.mac1609_4 	RXTXLostPackets 	0
scalar warning_scenario.node[13].nic.mac1609_4 	TotalLostPackets 	5084
scalar warning_scenario.node[13].nic.mac1609_4 	DroppedPacketsInMac 	0
scalar warning_scenario.node[13].nic.mac1609_4 	TooLittleTime 	0
scalar warning_scenario.node[13].nic.mac1609_4 	TimesIntoBackoff 	1199
scalar warning_scenario.node[13].nic.mac1609_4 	SlotsBackoff 	1792
scalar warning_scenario.node[13].nic.mac1609_4 	NumInternalContention 	0
scalar warning_scenario.node[13].nic.mac1609_4 	totalBusyTime 	1.020655
scalar warning_scenario.node[13].veinsmobility 	startTime 	22022
scalar warning_scenario.node[13].veinsmobility 	totalTime 	1198
scalar warning_scenario.node[13].veinsmobility 	stopTime 	23221
scalar warning_scenario.node[13].veinsmobility 	minSpeed 	0
scalar warning_scenario.node[13].veinsmobility 	maxSpeed 	12.211873945274
scalar warning_scenario.node[13].veinsmobility 	totalDistance 	10337.981253797
scalar warning_scenario.node[13].veinsmobility 	totalCO2Emission 	2560.8411596469
scalar warning_scenario.node[6].nic.phy80211p 	busyTime 	0.00037858453114309
scalar warning_scenario.node[6].nic.mac1609_4 	ReceivedUnicastPackets 	0
scalar warning_scenario.node[6].nic.mac1609_4 	ReceivedBroadcasts 	2133
scalar warning_scenario.node[6].nic.mac1609_4 	SentPackets 	1461
scalar warning_scenario.node[6].nic.mac1609_4 	SNIRLostPackets 	1934
scalar warning_scenario.node[6].nic.mac1609_4 	RXTXLostPackets 	0
scalar warning_scenario.node[6].nic.mac1609_4 	TotalLostPackets 	1934
scalar warning_scenario.node[6].nic.mac1609_4 	DroppedPacketsInMac 	0
scalar warning_scenario.node[6].nic.mac1609_4 	TooLittleTime 	0
scalar warning_scenario.node[6].nic.mac1609_4 	TimesIntoBackoff 	1461
scalar warning_scenario.node[6].nic.mac1609_4 	SlotsBackoff 	2210
scalar warning_scenario.node[6].nic.mac1609_4 	NumInternalContention 	0
scalar warning_scenario.node[6].nic.mac1609_4 	totalBusyTime 	0.753269
scalar warning_scenario.node[6].veinsmobility 	startTime 	21793
scalar warning_scenario.node[6].veinsmobility 	totalTime 	1460
scalar warning_scenario.node[6].veinsmobility 	stopTime 	23254
scalar warning_scenario.node[6].veinsmobility 	minSpeed 	2.4306572800586e-15
scalar warning_scenario.node[6].veinsmobility 	maxSpeed 	32.857756599208
scalar warning_scenario.node[6].veinsmobility 	totalDistance 	17509.324154429
scalar warning_scenario.node[6].veinsmobility 	totalCO2Emission 	3937.4292534943
scalar warning_scenario.node[38].nic.phy80211p 	busyTime 	0.0016986923076925
scalar warning_scenario.node[38].nic.mac1609_4 	ReceivedUnicastPackets 	0
scalar warning_scenario.node[38].nic.mac1609_4 	ReceivedBroadcasts 	3326
scalar warning_scenario.node[38].nic.mac1609_4 	SentPackets 	416
scalar warning_scenario.node[38].nic.mac1609_4 	SNIRLostPackets 	1870
scalar warning_scenario.node[38].nic.mac1609_4 	RXTXLostPackets 	0
scalar warning_scenario.node[38].nic.mac1609_4 	TotalLostPackets 	1870
scalar warning_scenario.node[38].nic.mac1609_4 	DroppedPacketsInMac 	0
scalar warning_scenario.node[38].nic.mac1609_4 	TooLittleTime 	0
scalar warning_scenario.node[38].nic.mac1609_4 	TimesIntoBackoff 	416
scalar warning_scenario.node[38].nic.mac1609_4 	SlotsBackoff 	639
scalar warning_scenario.node[38].nic.mac1609_4 	NumInternalContention 	0
scalar warning_scenario.node[38].nic.mac1609_4 	totalBusyTime 	0.763648
scalar warning_scenario.node[38].veinsmobility 	startTime 	22842
scalar warning_scenario.node[38].veinsmobility 	totalTime 	415
scalar warning_scenario.node[38].veinsmobility 	stopTime 	23258
scalar warning_scenario.node[38].veinsmobility 	minSpeed 	0
scalar warning_scenario.node[38].veinsmobility 	maxSpeed 	12.058922558466
scalar warning_scenario.node[38].veinsmobility 	totalDistance 	2886.6334818508
scalar warning_scenario.node[38].veinsmobility 	totalCO2Emission 	790.92397854206
scalar warning_scenario.node[37].nic.phy80211p 	busyTime 	0.0012441373390559
scalar warning_scenario.node[37].nic.mac1609_4 	ReceivedUnicastPackets 	0
scalar warning_scenario.node[37].nic.mac1609_4 	ReceivedBroadcasts 	2414
scalar warning_scenario.node[37].nic.mac1609_4 	SentPackets 	466
scalar warning_scenario.node[37].nic.mac1609_4 	SNIRLostPackets 	1849
scalar warning_scenario.node[37].nic.mac1609_4 	RXTXLostPackets 	0
scalar warning_scenario.node[37].nic.mac1609_4 	TotalLostPackets 	1849
scalar warning_scenario.node[37].nic.mac1609_4 	DroppedPacketsInMac 	0
scalar warning_scenario.node[37].nic.mac1609_4 	TooLittleTime 	0
scalar warning_scenario.node[37].nic.mac1609_4 	TimesIntoBackoff 	466
scalar warning_scenario.node[37].nic.mac1609_4 	SlotsBackoff 	682
scalar warning_scenario.node[37].nic.mac1609_4 	NumInternalContention 	0
scalar warning_scenario.node[37].nic.mac1609_4 	totalBusyTime 	0.64361
scalar warning_scenario.node[37].veinsmobility 	startTime 	22798
scalar warning_scenario.node[37].veinsmobility 	totalTime 	465
scalar warning_scenario.node[37].veinsmobility 	stopTime 	23264
scalar warning_scenario.node[37].veinsmobility 	minSpeed 	2.6631683894622e-15
scalar warning_scenario.node[37].veinsmobility 	maxSpeed 	14.179501036388
scalar warning_scenario.node[37].veinsmobility 	totalDistance 	4851.2518930709
scalar warning_scenario.node[37].veinsmobility 	totalCO2Emission 	1120.1453722014
scalar warning_scenario.node[45].nic.phy80211p 	busyTime 	0.0017446993006994
scalar warning_scenario.node[45].nic.mac1609_4 	ReceivedUnicastPackets 	0
scalar warning_scenario.node[45].nic.mac1609_4 	ReceivedBroadcasts 	2396
scalar warning_scenario.node[45].nic.mac1609_4 	SentPackets 	286
scalar warning_scenario.node[45].nic.mac1609_4 	SNIRLostPackets 	1273
scalar warning_scenario.node[45].nic.mac1609_4 	RXTXLostPackets 	0
scalar warning_scenario.node[45].nic.mac1609_4 	TotalLostPackets 	1273
scalar warning_scenario.node[45].nic.mac1609_4 	DroppedPacketsInMac 	0
scalar warning_scenario.node[45].nic.mac1609_4 	TooLittleTime 	0
scalar warning_scenario.node[45].nic.mac1609_4 	TimesIntoBackoff 	286
scalar warning_scenario.node[45].nic.mac1609_4 	SlotsBackoff 	407
scalar warning_scenario.node[45].nic.mac1609_4 	NumInternalContention 	0
scalar warning_scenario.node[45].nic.mac1609_4 	totalBusyTime 	0.538166
scalar warning_scenario.node[45].veinsmobility 	startTime 	23005
scalar warning_scenario.node[45].veinsmobility 	totalTime 	285
scalar warning_scenario.node[45].veinsmobility 	stopTime 	23291
scalar warning_scenario.node[45].veinsmobility 	minSpeed 	3.2707520854318e-13
scalar warning_scenario.node[45].veinsmobility 	maxSpeed 	12.946837742376
scalar warning_scenario.node[45].veinsmobility 	totalDistance 	2902.2761209286
scalar warning_scenario.node[45].veinsmobility 	totalCO2Emission 	659.84969989015
scalar warning_scenario.node[26].nic.phy80211p 	busyTime 	0.00052047200000005
scalar warning_scenario.node[26].nic.mac1609_4 	ReceivedUnicastPackets 	0
scalar warning_scenario.node[26].nic.mac1609_4 	ReceivedBroadcasts 	1939
scalar warning_scenario.node[26].nic.mac1609_4 	SentPackets 	1000
scalar warning_scenario.node[26].nic.mac1609_4 	SNIRLostPackets 	1888
scalar warning_scenario.node[26].nic.mac1609_4 	RXTXLostPackets 	0
scalar warning_scenario.node[26].nic.mac1609_4 	TotalLostPackets 	1888
scalar warning_scenario.node[26].nic.mac1609_4 	DroppedPacketsInMac 	0
scalar warning_scenario.node[26].nic.mac1609_4 	TooLittleTime 	0
scalar warning_scenario.node[26].nic.mac1609_4 	TimesIntoBackoff 	1000
scalar warning_scenario.node[26].nic.mac1609_4 	SlotsBackoff 	1480
scalar warning_scenario.node[26].nic.mac1609_4 	NumInternalContention 	0
scalar warning_scenario.node[26].nic.mac1609_4 	totalBusyTime 	0.657472
scalar warning_scenario.node[26].veinsmobility 	startTime 	22354
scalar warning_scenario.node[26].veinsmobility 	totalTime 	999
scalar warning_scenario.node[26].veinsmobility 	stopTime 	23354
scalar warning_scenario.node[26].veinsmobility 	minSpeed 	2.4114765269741e-15
scalar warning_scenario.node[26].veinsmobility 	maxSpeed 	22.225262325858
scalar warning_scenario.node[26].veinsmobility 	totalDistance 	14974.039189493
scalar warning_scenario.node[26].veinsmobility 	totalCO2Emission 	2724.3721242809
scalar warning_scenario.node[41].nic.phy80211p 	busyTime 	0.0013493443298971
scalar warning_scenario.node[41].nic.mac1609_4 	ReceivedUnicastPackets 	0
scalar warning_scenario.node[41].nic.mac1609_4 	ReceivedBroadcasts 	2747
scalar warning_scenario.node[41].nic.mac1609_4 	SentPackets 	485
scalar warning_scenario.node[41].nic.mac1609_4 	SNIRLostPackets 	2065
scalar warning_scenario.node[41].nic.mac1609_4 	RXTXLostPackets 	0
scalar warning_scenario.node[41].nic.mac1609_4 	TotalLostPackets 	2065
scalar warning_scenario.node[41].nic.mac1609_4 	DroppedPacketsInMac 	0
scalar warning_scenario.node[41].nic.mac1609_4 	TooLittleTime 	0
scalar warning_scenario.node[41].nic.mac1609_4 	TimesIntoBackoff 	485
scalar warning_scenario.node[41].nic.mac1609_4 	SlotsBackoff 	710
scalar warning_scenario.node[41].nic.mac1609_4 	NumInternalContention 	0
scalar warning_scenario.node[41].nic.mac1609_4 	totalBusyTime 	0.720877
scalar warning_scenario.node[41].veinsmobility 	startTime 	22901
scalar warning_scenario.node[41].veinsmobility 	totalTime 	484
scalar warning_scenario.node[41].veinsmobility 	stopTime 	23386
scalar warning_scenario.node[41].veinsmobility 	minSpeed 	0
scalar warning_scenario.node[41].veinsmobility 	maxSpeed 	21.511825233718
scalar warning_scenario.node[41].veinsmobility 	totalDistance 	5698.8498618075
scalar warning_scenario.node[41].veinsmobility 	totalCO2Emission 	1260.1105839862
scalar warning_scenario.node[40].nic.phy80211p 	busyTime 	0.0014487286245355
scalar warning_scenario.node[40].nic.mac1609_4 	ReceivedUnicastPackets 	0
scalar warning_scenario.node[40].nic.mac1609_4 	ReceivedBroadcasts 	3534
scalar warning_scenario.node[40].nic.mac1609_4 	SentPackets 	538
scalar warning_scenario.node[40].nic.mac1609_4 	SNIRLostPackets 	2197
scalar warning_scenario.node[40].nic.mac1609_4 	RXTXLostPackets 	0
scalar warning_scenario.node[40].nic.mac1609_4 	TotalLostPackets 	2197
scalar warning_scenario.node[40].nic.mac1609_4 	DroppedPacketsInMac 	0
scalar warning_scenario.node[40].nic.mac1609_4 	TooLittleTime 	0
scalar warning_scenario.node[40].nic.mac1609_4 	TimesIntoBackoff 	538
scalar warning_scenario.node[40].nic.mac1609_4 	SlotsBackoff 	820
scalar warning_scenario.node[40].nic.mac1609_4 	NumInternalContention 	0
scalar warning_scenario.node[40].nic.mac1609_4 	totalBusyTime 	0.853122
scalar warning_scenario.node[40].veinsmobility 	startTime 	22888
scalar warning_scenario.node[40].veinsmobility 	totalTime 	537
scalar warning_scenario.node[40].veinsmobility 	stopTime 	23426
scalar warning_scenario.node[40].veinsmobility 	minSpeed 	0
scalar warning_scenario.node[40].veinsmobility 	maxSpeed 	13.283713072158
scalar warning_scenario.node[40].veinsmobility 	totalDistance 	5204.5792305971
scalar warning_scenario.node[40].veinsmobility 	totalCO2Emission 	1269.6997496383
scalar warning_scenario.node[39].nic.phy80211p 	busyTime 	0.0011088309859156
scalar warning_scenario.node[39].nic.mac1609_4 	ReceivedUnicastPackets 	0
scalar warning_scenario.node[39].nic.mac1609_4 	ReceivedBroadcasts 	2543
scalar warning_scenario.node[39].nic.mac1609_4 	SentPackets 	568
scalar warning_scenario.node[39].nic.mac1609_4 	SNIRLostPackets 	2088
scalar warning_scenario.node[39].nic.mac1609_4 	RXTXLostPackets 	0
scalar warning_scenario.node[39].nic.mac1609_4 	TotalLostPackets 	2088
scalar warning_scenario.node[39].nic.mac1609_4 	DroppedPacketsInMac 	0
scalar warning_scenario.node[39].nic.mac1609_4 	TooLittleTime 	0
scalar warning_scenario.node[39].nic.mac1609_4 	TimesIntoBackoff 	568
scalar warning_scenario.node[39].nic.mac1609_4 	SlotsBackoff 	821
scalar warning_scenario.node[39].nic.mac1609_4 	NumInternalContention 	0
scalar warning_scenario.node[39].nic.mac1609_4 	totalBusyTime 	0.707632
scalar warning_scenario.node[39].veinsmobility 	startTime 	22868
scalar warning_scenario.node[39].veinsmobility 	totalTime 	567
scalar warning_scenario.node[39].veinsmobility 	stopTime 	23436
scalar warning_scenario.node[39].veinsmobility 	minSpeed 	2.4577583275172e-15
scalar warning_scenario.node[39].veinsmobility 	maxSpeed 	21.862312568336
scalar warning_scenario.node[39].veinsmobility 	totalDistance 	7722.3738277156
scalar warning_scenario.node[39].veinsmobility 	totalCO2Emission 	1529.5207974302
scalar warning_scenario.node[55].nic.phy80211p 	busyTime 	0.0011647428571428
scalar warning_scenario.node[55].nic.mac1609_4 	ReceivedUnicastPackets 	0
scalar warning_scenario.node[55].nic.mac1609_4 	ReceivedBroadcasts 	977
scalar warning_scenario.node[55].nic.mac1609_4 	SentPackets 	140
scalar warning_scenario.node[55].nic.mac1609_4 	SNIRLostPackets 	222
scalar warning_scenario.node[55].nic.mac1609_4 	RXTXLostPackets 	0
scalar warning_scenario.node[55].nic.mac1609_4 	TotalLostPackets 	222
scalar warning_scenario.node[55].nic.mac1609_4 	DroppedPacketsInMac 	0
scalar warning_scenario.node[55].nic.mac1609_4 	TooLittleTime 	0
scalar warning_scenario.node[55].nic.mac1609_4 	TimesIntoBackoff 	140
scalar warning_scenario.node[55].nic.mac1609_4 	SlotsBackoff 	198
scalar warning_scenario.node[55].nic.mac1609_4 	NumInternalContention 	0
scalar warning_scenario.node[55].nic.mac1609_4 	totalBusyTime 	0.182244
scalar warning_scenario.node[55].veinsmobility 	startTime 	23296
scalar warning_scenario.node[55].veinsmobility 	totalTime 	139
scalar warning_scenario.node[55].veinsmobility 	stopTime 	23436
scalar warning_scenario.node[55].veinsmobility 	minSpeed 	2.5677112521368e-15
scalar warning_scenario.node[55].veinsmobility 	maxSpeed 	16.239553267479
scalar warning_scenario.node[55].veinsmobility 	totalDistance 	1253.9418064073
scalar warning_scenario.node[55].veinsmobility 	totalCO2Emission 	342.55350837294
scalar warning_scenario.node[32].nic.phy80211p 	busyTime 	0.00035713568985178
scalar warning_scenario.node[32].nic.mac1609_4 	ReceivedUnicastPackets 	0
scalar warning_scenario.node[32].nic.mac1609_4 	ReceivedBroadcasts 	1205
scalar warning_scenario.node[32].nic.mac1609_4 	SentPackets 	877
scalar warning_scenario.node[32].nic.mac1609_4 	SNIRLostPackets 	1098
scalar warning_scenario.node[32].nic.mac1609_4 	RXTXLostPackets 	0
scalar warning_scenario.node[32].nic.mac1609_4 	TotalLostPackets 	1098
scalar warning_scenario.node[32].nic.mac1609_4 	DroppedPacketsInMac 	0
scalar warning_scenario.node[32].nic.mac1609_4 	TooLittleTime 	0
scalar warning_scenario.node[32].nic.mac1609_4 	TimesIntoBackoff 	877
scalar warning_scenario.node[32].nic.mac1609_4 	SlotsBackoff 	1330
scalar warning_scenario.node[32].nic.mac1609_4 	NumInternalContention 	0
scalar warning_scenario.node[32].nic.mac1609_4 	totalBusyTime 	0.433357
scalar warning_scenario.node[32].veinsmobility 	startTime 	22585
scalar warning_scenario.node[32].veinsmobility 	totalTime 	876
scalar warning_scenario.node[32].veinsmobility 	stopTime 	23462
scalar warning_scenario.node[32].veinsmobility 	minSpeed 	6.1477795671304e-16
scalar warning_scenario.node[32].veinsmobility 	maxSpeed 	55.519098436931
scalar warning_scenario.node[32].veinsmobility 	totalDistance 	15575.904620507
scalar warning_scenario.node[32].veinsmobility 	totalCO2Emission 	3579.3960844104
scalar warning_scenario.node[44].nic.phy80211p 	busyTime 	0.001211223382046
scalar warning_scenario.node[44].nic.mac1609_4 	ReceivedUnicastPackets 	0
scalar warning_scenario.node[44].nic.mac1609_4 	ReceivedBroadcasts 	2397
scalar warning_scenario.node[44].nic.mac1609_4 	SentPackets 	479
scalar warning_scenario.node[44].nic.mac1609_4 	SNIRLostPackets 	1869
scalar warning_scenario.node[44].nic.mac1609_4 	RXTXLostPackets 	0
scalar warning_scenario.node[44].nic.mac1609_4 	TotalLostPackets 	1869
scalar warning_scenario.node[44].nic.mac1609_4 	DroppedPacketsInMac 	0
scalar warning_scenario.node[44].nic.mac1609_4 	TooLittleTime 	0
scalar warning_scenario.node[44].nic.mac1609_4 	TimesIntoBackoff 	479
scalar warning_scenario.node[44].nic.mac1609_4 	SlotsBackoff 	756
scalar warning_scenario.node[44].nic.mac1609_4 	NumInternalContention 	0
scalar warning_scenario.node[44].nic.mac1609_4 	totalBusyTime 	0.645799
scalar warning_scenario.node[44].veinsmobility 	startTime 	22983
scalar warning_scenario.node[44].veinsmobility 	totalTime 	478
scalar warning_scenario.node[44].veinsmobility 	stopTime 	23462
scalar warning_scenario.node[44].veinsmobility 	minSpeed 	0
scalar warning_scenario.node[44].veinsmobility 	maxSpeed 	23.394438456154
scalar warning_scenario.node[44].veinsmobility 	totalDistance 	6434.4653166064
scalar warning_scenario.node[44].veinsmobility 	totalCO2Emission 	1408.9008667714
scalar warning_scenario.node[43].nic.phy80211p 	busyTime 	0.0010465761467891
scalar warning_scenario.node[43].nic.mac1609_4 	ReceivedUnicastPackets 	0
scalar warning_scenario.node[43].nic.mac1609_4 	ReceivedBroadcasts 	2482
scalar warning_scenario.node[43].nic.mac1609_4 	SentPackets 	545
scalar warning_scenario.node[43].nic.mac1609_4 	SNIRLostPackets 	1712
scalar warning_scenario.node[43].nic.mac1609_4 	RXTXLostPackets 	0
scalar warning_scenario.node[43].nic.mac1609_4 	TotalLostPackets 	1712
scalar warning_scenario.node[43].nic.mac1609_4 	DroppedPacketsInMac 	0
scalar warning_scenario.node[43].nic.mac1609_4 	TooLittleTime 	0
scalar warning_scenario.node[43].nic.mac1609_4 	TimesIntoBackoff 	545
scalar warning_scenario.node[43].nic.mac1609_4 	SlotsBackoff 	827
scalar warning_scenario.node[43].nic.mac1609_4 	NumInternalContention 	0
scalar warning_scenario.node[43].nic.mac1609_4 	totalBusyTime 	0.645049
scalar warning_scenario.node[43].veinsmobility 	startTime 	22960
scalar warning_scenario.node[43].veinsmobility 	totalTime 	544
scalar warning_scenario.node[43].veinsmobility 	stopTime 	23505
scalar warning_scenario.node[43].veinsmobility 	minSpeed 	3.2289647719825e-12
scalar warning_scenario.node[43].veinsmobility 	maxSpeed 	22.694501351408
scalar warning_scenario.node[43].veinsmobility 	totalDistance 	7518.4159832419
scalar warning_scenario.node[43].veinsmobility 	totalCO2Emission 	1542.6882418767
scalar warning_scenario.node[57].nic.phy80211p 	busyTime 	0.0011656
scalar warning_scenario.node[57].nic.mac1609_4 	ReceivedUnicastPackets 	0
scalar warning_scenario.node[57].nic.mac1609_4 	ReceivedBroadcasts 	1085
scalar warning_scenario.node[57].nic.mac1609_4 	SentPackets 	170
scalar warning_scenario.node[57].nic.mac1609_4 	SNIRLostPackets 	372
scalar warning_scenario.node[57].nic.mac1609_4 	RXTXLostPackets 	0
scalar warning_scenario.node[57].nic.mac1609_4 	TotalLostPackets 	372
scalar warning_scenario.node[57].nic.mac1609_4 	DroppedPacketsInMac 	0
scalar warning_scenario.node[57].nic.mac1609_4 	TooLittleTime 	0
scalar warning_scenario.node[57].nic.mac1609_4 	TimesIntoBackoff 	170
scalar warning_scenario.node[57].nic.mac1609_4 	SlotsBackoff 	212
scalar warning_scenario.node[57].nic.mac1609_4 	NumInternalContention 	0
scalar warning_scenario.node[57].nic.mac1609_4 	totalBusyTime 	0.221442
scalar warning_scenario.node[57].veinsmobility 	startTime 	23351
scalar warning_scenario.node[57].veinsmobility 	totalTime 	169
scalar warning_scenario.node[57].veinsmobility 	stopTime 	23521
scalar warning_scenario.node[57].veinsmobility 	minSpeed 	2.2825685580494
scalar warning_scenario.node[57].veinsmobility 	maxSpeed 	14.331791738893
scalar warning_scenario.node[57].veinsmobility 	totalDistance 	1495.6329565761
scalar warning_scenario.node[57].veinsmobility 	totalCO2Emission 	383.93605150556
scalar warning_scenario.node[56].nic.phy80211p 	busyTime 	0.0011607887323943
scalar warning_scenario.node[56].nic.mac1609_4 	ReceivedUnicastPackets 	0
scalar warning_scenario.node[56].nic.mac1609_4 	ReceivedBroadcasts 	1248
scalar warning_scenario.node[56].nic.mac1609_4 	SentPackets 	213
scalar warning_scenario.node[56].nic.mac1609_4 	SNIRLostPackets 	570
scalar warning_scenario.node[56].nic.mac1609_4 	RXTXLostPackets 	0
scalar warning_scenario.node[56].nic.mac1609_4 	TotalLostPackets 	570
scalar warning_scenario.node[56].nic.mac1609_4 	DroppedPacketsInMac 	0
scalar warning_scenario.node[56].nic.mac1609_4 	TooLittleTime 	0
scalar warning_scenario.node[56].nic.mac1609_4 	TimesIntoBackoff 	213
scalar warning_scenario.node[56].nic.mac1609_4 	SlotsBackoff 	329
scalar warning_scenario.node[56].nic.mac1609_4 	NumInternalContention 	0
scalar warning_scenario.node[56].nic.mac1609_4 	totalBusyTime 	0.276429
scalar warning_scenario.node[56].veinsmobility 	startTime 	23321
scalar warning_scenario.node[56].veinsmobility 	totalTime 	212
scalar warning_scenario.node[56].veinsmobility 	stopTime 	23534
scalar warning_scenario.node[56].veinsmobility 	minSpeed 	2.7396807853288e-15
scalar warning_scenario.node[56].veinsmobility 	maxSpeed 	12.120088278209
scalar warning_scenario.node[56].veinsmobility 	totalDistance 	1960.7421508618
scalar warning_scenario.node[56].veinsmobility 	totalCO2Emission 	499.38969781036
scalar warning_scenario.node[42].nic.phy80211p 	busyTime 	0.0012037446808512
scalar warning_scenario.node[42].nic.mac1609_4 	ReceivedUnicastPackets 	0
scalar warning_scenario.node[42].nic.mac1609_4 	ReceivedBroadcasts 	3106
scalar warning_scenario.node[42].nic.mac1609_4 	SentPackets 	611
scalar warning_scenario.node[42].nic.mac1609_4 	SNIRLostPackets 	2302
scalar warning_scenario.node[42].nic.mac1609_4 	RXTXLostPackets 	0
scalar warning_scenario.node[42].nic.mac1609_4 	TotalLostPackets 	2302
scalar warning_scenario.node[42].nic.mac1609_4 	DroppedPacketsInMac 	0
scalar warning_scenario.node[42].nic.mac1609_4 	TooLittleTime 	0
scalar warning_scenario.node[42].nic.mac1609_4 	TimesIntoBackoff 	611
scalar warning_scenario.node[42].nic.mac1609_4 	SlotsBackoff 	921
scalar warning_scenario.node[42].nic.mac1609_4 	NumInternalContention 	0
scalar warning_scenario.node[42].nic.mac1609_4 	totalBusyTime 	0.819195
scalar warning_scenario.node[42].veinsmobility 	startTime 	22931
scalar warning_scenario.node[42].veinsmobility 	totalTime 	610
scalar warning_scenario.node[42].veinsmobility 	stopTime 	23542
scalar warning_scenario.node[42].veinsmobility 	minSpeed 	0
scalar warning_scenario.node[42].veinsmobility 	maxSpeed 	16.113010985726
scalar warning_scenario.node[42].veinsmobility 	totalDistance 	6165.803319646
scalar warning_scenario.node[42].veinsmobility 	totalCO2Emission 	1666.1196075412
scalar warning_scenario.node[47].nic.phy80211p 	busyTime 	0.00089695238095245
scalar warning_scenario.node[47].nic.mac1609_4 	ReceivedUnicastPackets 	0
scalar warning_scenario.node[47].nic.mac1609_4 	ReceivedBroadcasts 	1854
scalar warning_scenario.node[47].nic.mac1609_4 	SentPackets 	504
scalar warning_scenario.node[47].nic.mac1609_4 	SNIRLostPackets 	1470
scalar warning_scenario.node[47].nic.mac1609_4 	RXTXLostPackets 	0
scalar warning_scenario.node[47].nic.mac1609_4 	TotalLostPackets 	1470
scalar warning_scenario.node[47].nic.mac1609_4 	DroppedPacketsInMac 	0
scalar warning_scenario.node[47].nic.mac1609_4 	TooLittleTime 	0
scalar warning_scenario.node[47].nic.mac1609_4 	TimesIntoBackoff 	504
scalar warning_scenario.node[47].nic.mac1609_4 	SlotsBackoff 	779
scalar warning_scenario.node[47].nic.mac1609_4 	NumInternalContention 	0
scalar warning_scenario.node[47].nic.mac1609_4 	totalBusyTime 	0.521112
scalar warning_scenario.node[47].veinsmobility 	startTime 	23086
scalar warning_scenario.node[47].veinsmobility 	totalTime 	503
scalar warning_scenario.node[47].veinsmobility 	stopTime 	23590
scalar warning_scenario.node[47].veinsmobility 	minSpeed 	4.4416128613752e-15
scalar warning_scenario.node[47].veinsmobility 	maxSpeed 	10.004119567651
scalar warning_scenario.node[47].veinsmobility 	totalDistance 	3551.1493242619
scalar warning_scenario.node[47].veinsmobility 	totalCO2Emission 	925.10811568114
scalar warning_scenario.node[48].nic.phy80211p 	busyTime 	0.0010895722543354
scalar warning_scenario.node[48].nic.mac1609_4 	ReceivedUnicastPackets 	0
scalar warning_scenario.node[48].nic.mac1609_4 	ReceivedBroadcasts 	2693
scalar warning_scenario.node[48].nic.mac1609_4 	SentPackets 	519
scalar warning_scenario.node[48].nic.mac1609_4 	SNIRLostPackets 	1465
scalar warning_scenario.node[48].nic.mac1609_4 	RXTXLostPackets 	0
scalar warning_scenario.node[48].nic.mac1609_4 	TotalLostPackets 	1465
scalar warning_scenario.node[48].nic.mac1609_4 	DroppedPacketsInMac 	0
scalar warning_scenario.node[48].nic.mac1609_4 	TooLittleTime 	0
scalar warning_scenario.node[48].nic.mac1609_4 	TimesIntoBackoff 	519
scalar warning_scenario.node[48].nic.mac1609_4 	SlotsBackoff 	766
scalar warning_scenario.node[48].nic.mac1609_4 	NumInternalContention 	0
scalar warning_scenario.node[48].nic.mac1609_4 	totalBusyTime 	0.636591
scalar warning_scenario.node[48].veinsmobility 	startTime 	23120
scalar warning_scenario.node[48].veinsmobility 	totalTime 	518
scalar warning_scenario.node[48].veinsmobility 	stopTime 	23639
scalar warning_scenario.node[48].veinsmobility 	minSpeed 	0
scalar warning_scenario.node[48].veinsmobility 	maxSpeed 	12.062535240397
scalar warning_scenario.node[48].veinsmobility 	totalDistance 	4037.1063923667
scalar warning_scenario.node[48].veinsmobility 	totalCO2Emission 	1046.7418232368
scalar warning_scenario.node[46].nic.phy80211p 	busyTime 	0.0010169139280126
scalar warning_scenario.node[46].nic.mac1609_4 	ReceivedUnicastPackets 	0
scalar warning_scenario.node[46].nic.mac1609_4 	ReceivedBroadcasts 	2518
scalar warning_scenario.node[46].nic.mac1609_4 	SentPackets 	639
scalar warning_scenario.node[46].nic.mac1609_4 	SNIRLostPackets 	2260
scalar warning_scenario.node[46].nic.mac1609_4 	RXTXLostPackets 	0
scalar warning_scenario.node[46].nic.mac1609_4 	TotalLostPackets 	2260
scalar warning_scenario.node[46].nic.mac1609_4 	DroppedPacketsInMac 	0
scalar warning_scenario.node[46].nic.mac1609_4 	TooLittleTime 	0
scalar warning_scenario.node[46].nic.mac1609_4 	TimesIntoBackoff 	639
scalar warning_scenario.node[46].nic.mac1609_4 	SlotsBackoff 	976
scalar warning_scenario.node[46].nic.mac1609_4 	NumInternalContention 	0
scalar warning_scenario.node[46].nic.mac1609_4 	totalBusyTime 	0.737351
scalar warning_scenario.node[46].veinsmobility 	startTime 	23038
scalar warning_scenario.node[46].veinsmobility 	totalTime 	638
scalar warning_scenario.node[46].veinsmobility 	stopTime 	23677
scalar warning_scenario.node[46].veinsmobility 	minSpeed 	0
scalar warning_scenario.node[46].veinsmobility 	maxSpeed 	13.868556487437
scalar warning_scenario.node[46].veinsmobility 	totalDistance 	6254.1821772924
scalar warning_scenario.node[46].veinsmobility 	totalCO2Emission 	1524.6282057893
scalar warning_scenario.node[54].nic.phy80211p 	busyTime 	0.00084326491646782
scalar warning_scenario.node[54].nic.mac1609_4 	ReceivedUnicastPackets 	0
scalar warning_scenario.node[54].nic.mac1609_4 	ReceivedBroadcasts 	1429
scalar warning_scenario.node[54].nic.mac1609_4 	SentPackets 	419
scalar warning_scenario.node[54].nic.mac1609_4 	SNIRLostPackets 	1169
scalar warning_scenario.node[54].nic.mac1609_4 	RXTXLostPackets 	0
scalar warning_scenario.node[54].nic.mac1609_4 	TotalLostPackets 	1169
scalar warning_scenario.node[54].nic.mac1609_4 	DroppedPacketsInMac 	0
scalar warning_scenario.node[54].nic.mac1609_4 	TooLittleTime 	0
scalar warning_scenario.node[54].nic.mac1609_4 	TimesIntoBackoff 	419
scalar warning_scenario.node[54].nic.mac1609_4 	SlotsBackoff 	617
scalar warning_scenario.node[54].nic.mac1609_4 	NumInternalContention 	0
scalar warning_scenario.node[54].nic.mac1609_4 	totalBusyTime 	0.410731
scalar warning_scenario.node[54].veinsmobility 	startTime 	23287
scalar warning_scenario.node[54].veinsmobility 	totalTime 	418
scalar warning_scenario.node[54].veinsmobility 	stopTime 	23706
scalar warning_scenario.node[54].veinsmobility 	minSpeed 	2.4406636841644e-15
scalar warning_scenario.node[54].veinsmobility 	maxSpeed 	16.6223364459
scalar warning_scenario.node[54].veinsmobility 	totalDistance 	3971.9630483575
scalar warning_scenario.node[54].veinsmobility 	totalCO2Emission 	1105.592050592
scalar warning_scenario.node[52].nic.phy80211p 	busyTime 	0.00074528000000005
scalar warning_scenario.node[52].nic.mac1609_4 	ReceivedUnicastPackets 	0
scalar warning_scenario.node[52].nic.mac1609_4 	ReceivedBroadcasts 	2365
scalar warning_scenario.node[52].nic.mac1609_4 	SentPackets 	600
scalar warning_scenario.node[52].nic.mac1609_4 	SNIRLostPackets 	923
scalar warning_scenario.node[52].nic.mac1609_4 	RXTXLostPackets 	0
scalar warning_scenario.node[52].nic.mac1609_4 	TotalLostPackets 	923
scalar warning_scenario.node[52].nic.mac1609_4 	DroppedPacketsInMac 	0
scalar warning_scenario.node[52].nic.mac1609_4 	TooLittleTime 	0
scalar warning_scenario.node[52].nic.mac1609_4 	TimesIntoBackoff 	600
scalar warning_scenario.node[52].nic.mac1609_4 	SlotsBackoff 	926
scalar warning_scenario.node[52].nic.mac1609_4 	NumInternalContention 	0
scalar warning_scenario.node[52].nic.mac1609_4 	totalBusyTime 	0.529368
scalar warning_scenario.node[52].veinsmobility 	startTime 	23230
scalar warning_scenario.node[52].veinsmobility 	totalTime 	599
scalar warning_scenario.node[52].veinsmobility 	stopTime 	23830
scalar warning_scenario.node[52].veinsmobility 	minSpeed 	2.4318501158089e-15
scalar warning_scenario.node[52].veinsmobility 	maxSpeed 	15.664246516154
scalar warning_scenario.node[52].veinsmobility 	totalDistance 	5682.9002676091
scalar warning_scenario.node[52].veinsmobility 	totalCO2Emission 	1541.3926266161
scalar warning_scenario.node[50].nic.phy80211p 	busyTime 	0.00075183699059567
scalar warning_scenario.node[50].nic.mac1609_4 	ReceivedUnicastPackets 	0
scalar warning_scenario.node[50].nic.mac1609_4 	ReceivedBroadcasts 	1403
scalar warning_scenario.node[50].nic.mac1609_4 	SentPackets 	638
scalar warning_scenario.node[50].nic.mac1609_4 	SNIRLostPackets 	2124
scalar warning_scenario.node[50].nic.mac1609_4 	RXTXLostPackets 	0
scalar warning_scenario.node[50].nic.mac1609_4 	TotalLostPackets 	2124
scalar warning_scenario.node[50].nic.mac1609_4 	DroppedPacketsInMac 	0
scalar warning_scenario.node[50].nic.mac1609_4 	TooLittleTime 	0
scalar warning_scenario.node[50].nic.mac1609_4 	TimesIntoBackoff 	638
scalar warning_scenario.node[50].nic.mac1609_4 	SlotsBackoff 	932
scalar warning_scenario.node[50].nic.mac1609_4 	NumInternalContention 	0
scalar warning_scenario.node[50].nic.mac1609_4 	totalBusyTime 	0.567078
scalar warning_scenario.node[50].veinsmobility 	startTime 	23192
scalar warning_scenario.node[50].veinsmobility 	totalTime 	637
scalar warning_scenario.node[50].veinsmobility 	stopTime 	23830
scalar warning_scenario.node[50].veinsmobility 	minSpeed 	0
scalar warning_scenario.node[50].veinsmobility 	maxSpeed 	11.841228643537
scalar warning_scenario.node[50].veinsmobility 	totalDistance 	5459.427554527
scalar warning_scenario.node[50].veinsmobility 	totalCO2Emission 	1309.4272640691
scalar warning_scenario.node[49].nic.phy80211p 	busyTime 	0.00033228683181225
scalar warning_scenario.node[49].nic.mac1609_4 	ReceivedUnicastPackets 	0
scalar warning_scenario.node[49].nic.mac1609_4 	ReceivedBroadcasts 	1108
scalar warning_scenario.node[49].nic.mac1609_4 	SentPackets 	767
scalar warning_scenario.node[49].nic.mac1609_4 	SNIRLostPackets 	766
scalar warning_scenario.node[49].nic.mac1609_4 	RXTXLostPackets 	0
scalar warning_scenario.node[49].nic.mac1609_4 	TotalLostPackets 	766
scalar warning_scenario.node[49].nic.mac1609_4 	DroppedPacketsInMac 	0
scalar warning_scenario.node[49].nic.mac1609_4 	TooLittleTime 	0
scalar warning_scenario.node[49].nic.mac1609_4 	TimesIntoBackoff 	767
scalar warning_scenario.node[49].nic.mac1609_4 	SlotsBackoff 	1209
scalar warning_scenario.node[49].nic.mac1609_4 	NumInternalContention 	0
scalar warning_scenario.node[49].nic.mac1609_4 	totalBusyTime 	0.359943
scalar warning_scenario.node[49].veinsmobility 	startTime 	23158
scalar warning_scenario.node[49].veinsmobility 	totalTime 	766
scalar warning_scenario.node[49].veinsmobility 	stopTime 	23925
scalar warning_scenario.node[49].veinsmobility 	minSpeed 	2.2494538644562
scalar warning_scenario.node[49].veinsmobility 	maxSpeed 	29.968721173158
scalar warning_scenario.node[49].veinsmobility 	totalDistance 	15666.375108441
scalar warning_scenario.node[49].veinsmobility 	totalCO2Emission 	2969.356376327
scalar warning_scenario.node[59].nic.phy80211p 	busyTime 	0.00089760000000008
scalar warning_scenario.node[59].nic.mac1609_4 	ReceivedUnicastPackets 	0
scalar warning_scenario.node[59].nic.mac1609_4 	ReceivedBroadcasts 	2151
scalar warning_scenario.node[59].nic.mac1609_4 	SentPackets 	560
scalar warning_scenario.node[59].nic.mac1609_4 	SNIRLostPackets 	1545
scalar warning_scenario.node[59].nic.mac1609_4 	RXTXLostPackets 	0
scalar warning_scenario.node[59].nic.mac1609_4 	TotalLostPackets 	1545
scalar warning_scenario.node[59].nic.mac1609_4 	DroppedPacketsInMac 	0
scalar warning_scenario.node[59].nic.mac1609_4 	TooLittleTime 	0
scalar warning_scenario.node[59].nic.mac1609_4 	TimesIntoBackoff 	560
scalar warning_scenario.node[59].nic.mac1609_4 	SlotsBackoff 	828
[...]
scalar warning_scenario.node[145].veinsmobility 	stopTime 	25147.83614636
scalar warning_scenario.node[145].veinsmobility 	minSpeed 	0
scalar warning_scenario.node[145].veinsmobility 	maxSpeed 	18.400007310117
scalar warning_scenario.node[145].veinsmobility 	totalDistance 	2697.1078886967
scalar warning_scenario.node[145].veinsmobility 	totalCO2Emission 	524.18544074984
scalar warning_scenario.node[179].nic.phy80211p 	busyTime 	0.006581256479163
scalar warning_scenario.node[179].nic.mac1609_4 	ReceivedUnicastPackets 	0
scalar warning_scenario.node[179].nic.mac1609_4 	ReceivedBroadcasts 	1997
scalar warning_scenario.node[179].nic.mac1609_4 	SentPackets 	56
scalar warning_scenario.node[179].nic.mac1609_4 	SNIRLostPackets 	705
scalar warning_scenario.node[179].nic.mac1609_4 	RXTXLostPackets 	0
scalar warning_scenario.node[179].nic.mac1609_4 	TotalLostPackets 	705
scalar warning_scenario.node[179].nic.mac1609_4 	DroppedPacketsInMac 	0
scalar warning_scenario.node[179].nic.mac1609_4 	TooLittleTime 	0
scalar warning_scenario.node[179].nic.mac1609_4 	TimesIntoBackoff 	56
scalar warning_scenario.node[179].nic.mac1609_4 	SlotsBackoff 	85
scalar warning_scenario.node[179].nic.mac1609_4 	NumInternalContention 	0
scalar warning_scenario.node[179].nic.mac1609_4 	totalBusyTime 	0.375144
scalar warning_scenario.node[179].veinsmobility 	startTime 	25092
scalar warning_scenario.node[179].veinsmobility 	totalTime 	55
scalar warning_scenario.node[179].veinsmobility 	stopTime 	25147.83614636
scalar warning_scenario.node[179].veinsmobility 	minSpeed 	1.8413675770164
scalar warning_scenario.node[179].veinsmobility 	maxSpeed 	12.335321940911
scalar warning_scenario.node[179].veinsmobility 	totalDistance 	416.14683047207
scalar warning_scenario.node[179].veinsmobility 	totalCO2Emission 	124.54907916282
scalar warning_scenario.node[151].nic.phy80211p 	busyTime 	0.0056222189473075
scalar warning_scenario.node[151].nic.mac1609_4 	ReceivedUnicastPackets 	0
scalar warning_scenario.node[151].nic.mac1609_4 	ReceivedBroadcasts 	5019
scalar warning_scenario.node[151].nic.mac1609_4 	SentPackets 	170
scalar warning_scenario.node[151].nic.mac1609_4 	SNIRLostPackets 	2002
scalar warning_scenario.node[151].nic.mac1609_4 	RXTXLostPackets 	0
scalar warning_scenario.node[151].nic.mac1609_4 	TotalLostPackets 	2002
scalar warning_scenario.node[151].nic.mac1609_4 	DroppedPacketsInMac 	0
scalar warning_scenario.node[151].nic.mac1609_4 	TooLittleTime 	0
scalar warning_scenario.node[151].nic.mac1609_4 	TimesIntoBackoff 	170
scalar warning_scenario.node[151].nic.mac1609_4 	SlotsBackoff 	261
scalar warning_scenario.node[151].nic.mac1609_4 	NumInternalContention 	0
scalar warning_scenario.node[151].nic.mac1609_4 	totalBusyTime 	0.978146
scalar warning_scenario.node[151].veinsmobility 	startTime 	24978
scalar warning_scenario.node[151].veinsmobility 	totalTime 	169
scalar warning_scenario.node[151].veinsmobility 	stopTime 	25147.83614636
scalar warning_scenario.node[151].veinsmobility 	minSpeed 	0.099834268263005
scalar warning_scenario.node[151].veinsmobility 	maxSpeed 	11.059582716158
scalar warning_scenario.node[151].veinsmobility 	totalDistance 	1205.5236311258
scalar warning_scenario.node[151].veinsmobility 	totalCO2Emission 	313.94361482065
scalar warning_scenario.node[152].nic.phy80211p 	busyTime 	0
scalar warning_scenario.node[152].nic.mac1609_4 	ReceivedUnicastPackets 	0
scalar warning_scenario.node[152].nic.mac1609_4 	ReceivedBroadcasts 	0
scalar warning_scenario.node[152].nic.mac1609_4 	SentPackets 	160
scalar warning_scenario.node[152].nic.mac1609_4 	SNIRLostPackets 	0
scalar warning_scenario.node[152].nic.mac1609_4 	RXTXLostPackets 	0
scalar warning_scenario.node[152].nic.mac1609_4 	TotalLostPackets 	0
scalar warning_scenario.node[152].nic.mac1609_4 	DroppedPacketsInMac 	0
scalar warning_scenario.node[152].nic.mac1609_4 	TooLittleTime 	0
scalar warning_scenario.node[152].nic.mac1609_4 	TimesIntoBackoff 	160
scalar warning_scenario.node[152].nic.mac1609_4 	SlotsBackoff 	246
scalar warning_scenario.node[152].nic.mac1609_4 	NumInternalContention 	0
scalar warning_scenario.node[152].nic.mac1609_4 	totalBusyTime 	0.02192
scalar warning_scenario.node[152].veinsmobility 	startTime 	24987
scalar warning_scenario.node[152].veinsmobility 	totalTime 	160
scalar warning_scenario.node[152].veinsmobility 	stopTime 	25147.83614636
scalar warning_scenario.node[152].veinsmobility 	minSpeed 	2.4650525914039
scalar warning_scenario.node[152].veinsmobility 	maxSpeed 	14.996233564216
scalar warning_scenario.node[152].veinsmobility 	totalDistance 	2011.067724947
scalar warning_scenario.node[152].veinsmobility 	totalCO2Emission 	486.80312047913
scalar warning_scenario.node[119].nic.phy80211p 	busyTime 	0.0041346022241078
scalar warning_scenario.node[119].nic.mac1609_4 	ReceivedUnicastPackets 	0
scalar warning_scenario.node[119].nic.mac1609_4 	ReceivedBroadcasts 	8217
scalar warning_scenario.node[119].nic.mac1609_4 	SentPackets 	391
scalar warning_scenario.node[119].nic.mac1609_4 	SNIRLostPackets 	3665
scalar warning_scenario.node[119].nic.mac1609_4 	RXTXLostPackets 	0
scalar warning_scenario.node[119].nic.mac1609_4 	TotalLostPackets 	3665
scalar warning_scenario.node[119].nic.mac1609_4 	DroppedPacketsInMac 	0
scalar warning_scenario.node[119].nic.mac1609_4 	TooLittleTime 	0
scalar warning_scenario.node[119].nic.mac1609_4 	TimesIntoBackoff 	391
scalar warning_scenario.node[119].nic.mac1609_4 	SlotsBackoff 	599
scalar warning_scenario.node[119].nic.mac1609_4 	NumInternalContention 	0
scalar warning_scenario.node[119].nic.mac1609_4 	totalBusyTime 	1.669519
scalar warning_scenario.node[119].veinsmobility 	startTime 	24757
scalar warning_scenario.node[119].veinsmobility 	totalTime 	390
scalar warning_scenario.node[119].veinsmobility 	stopTime 	25147.83614636
scalar warning_scenario.node[119].veinsmobility 	minSpeed 	2.514481329276e-15
scalar warning_scenario.node[119].veinsmobility 	maxSpeed 	11.386208530416
scalar warning_scenario.node[119].veinsmobility 	totalDistance 	2451.718318069
scalar warning_scenario.node[119].veinsmobility 	totalCO2Emission 	677.33271362418
scalar warning_scenario.node[143].nic.phy80211p 	busyTime 	0.0050200464885137
scalar warning_scenario.node[143].nic.mac1609_4 	ReceivedUnicastPackets 	0
scalar warning_scenario.node[143].nic.mac1609_4 	ReceivedBroadcasts 	5729
scalar warning_scenario.node[143].nic.mac1609_4 	SentPackets 	227
scalar warning_scenario.node[143].nic.mac1609_4 	SNIRLostPackets 	2644
scalar warning_scenario.node[143].nic.mac1609_4 	RXTXLostPackets 	0
scalar warning_scenario.node[143].nic.mac1609_4 	TotalLostPackets 	2644
scalar warning_scenario.node[143].nic.mac1609_4 	DroppedPacketsInMac 	0
scalar warning_scenario.node[143].nic.mac1609_4 	TooLittleTime 	0
scalar warning_scenario.node[143].nic.mac1609_4 	TimesIntoBackoff 	227
scalar warning_scenario.node[143].nic.mac1609_4 	SlotsBackoff 	312
scalar warning_scenario.node[143].nic.mac1609_4 	NumInternalContention 	0
scalar warning_scenario.node[143].nic.mac1609_4 	totalBusyTime 	1.169827
scalar warning_scenario.node[143].veinsmobility 	startTime 	24921
scalar warning_scenario.node[143].veinsmobility 	totalTime 	226
scalar warning_scenario.node[143].veinsmobility 	stopTime 	25147.83614636
scalar warning_scenario.node[143].veinsmobility 	minSpeed 	2.6624552178554e-15
scalar warning_scenario.node[143].veinsmobility 	maxSpeed 	13.130325709898
scalar warning_scenario.node[143].veinsmobility 	totalDistance 	2153.2850345209
scalar warning_scenario.node[143].veinsmobility 	totalCO2Emission 	566.06270239921
scalar warning_scenario.node[136].nic.phy80211p 	busyTime 	0.0037621037751809
scalar warning_scenario.node[136].nic.mac1609_4 	ReceivedUnicastPackets 	0
scalar warning_scenario.node[136].nic.mac1609_4 	ReceivedBroadcasts 	3745
scalar warning_scenario.node[136].nic.mac1609_4 	SentPackets 	274
scalar warning_scenario.node[136].nic.mac1609_4 	SNIRLostPackets 	3830
scalar warning_scenario.node[136].nic.mac1609_4 	RXTXLostPackets 	0
scalar warning_scenario.node[136].nic.mac1609_4 	TotalLostPackets 	3830
scalar warning_scenario.node[136].nic.mac1609_4 	DroppedPacketsInMac 	0
scalar warning_scenario.node[136].nic.mac1609_4 	TooLittleTime 	0
scalar warning_scenario.node[136].nic.mac1609_4 	TimesIntoBackoff 	274
scalar warning_scenario.node[136].nic.mac1609_4 	SlotsBackoff 	407
scalar warning_scenario.node[136].nic.mac1609_4 	NumInternalContention 	0
scalar warning_scenario.node[136].nic.mac1609_4 	totalBusyTime 	1.067738
scalar warning_scenario.node[136].veinsmobility 	startTime 	24874
scalar warning_scenario.node[136].veinsmobility 	totalTime 	273
scalar warning_scenario.node[136].veinsmobility 	stopTime 	25147.83614636
scalar warning_scenario.node[136].veinsmobility 	minSpeed 	1.0859240514515e-06
scalar warning_scenario.node[136].veinsmobility 	maxSpeed 	15.336341085463
scalar warning_scenario.node[136].veinsmobility 	totalDistance 	3033.5372607507
scalar warning_scenario.node[136].veinsmobility 	totalCO2Emission 	712.11714632209
scalar warning_scenario.node[140].nic.phy80211p 	busyTime 	0.0031900263678493
scalar warning_scenario.node[140].nic.mac1609_4 	ReceivedUnicastPackets 	0
scalar warning_scenario.node[140].nic.mac1609_4 	ReceivedBroadcasts 	1555
scalar warning_scenario.node[140].nic.mac1609_4 	SentPackets 	254
scalar warning_scenario.node[140].nic.mac1609_4 	SNIRLostPackets 	4399
scalar warning_scenario.node[140].nic.mac1609_4 	RXTXLostPackets 	0
scalar warning_scenario.node[140].nic.mac1609_4 	TotalLostPackets 	4399
scalar warning_scenario.node[140].nic.mac1609_4 	DroppedPacketsInMac 	0
scalar warning_scenario.node[140].nic.mac1609_4 	TooLittleTime 	0
scalar warning_scenario.node[140].nic.mac1609_4 	TimesIntoBackoff 	254
scalar warning_scenario.node[140].nic.mac1609_4 	SlotsBackoff 	365
scalar warning_scenario.node[140].nic.mac1609_4 	NumInternalContention 	0
scalar warning_scenario.node[140].nic.mac1609_4 	totalBusyTime 	0.844542
scalar warning_scenario.node[140].veinsmobility 	startTime 	24894
scalar warning_scenario.node[140].veinsmobility 	totalTime 	253
scalar warning_scenario.node[140].veinsmobility 	stopTime 	25147.83614636
scalar warning_scenario.node[140].veinsmobility 	minSpeed 	1.2435434136081
scalar warning_scenario.node[140].veinsmobility 	maxSpeed 	12.259894911224
scalar warning_scenario.node[140].veinsmobility 	totalDistance 	2232.5595135619
scalar warning_scenario.node[140].veinsmobility 	totalCO2Emission 	582.37444222793
scalar warning_scenario.node[190].nic.phy80211p 	busyTime 	0.0032975392258518
scalar warning_scenario.node[190].nic.mac1609_4 	ReceivedUnicastPackets 	0
scalar warning_scenario.node[190].nic.mac1609_4 	ReceivedBroadcasts 	43
scalar warning_scenario.node[190].nic.mac1609_4 	SentPackets 	7
scalar warning_scenario.node[190].nic.mac1609_4 	SNIRLostPackets 	147
scalar warning_scenario.node[190].nic.mac1609_4 	RXTXLostPackets 	0
scalar warning_scenario.node[190].nic.mac1609_4 	TotalLostPackets 	147
scalar warning_scenario.node[190].nic.mac1609_4 	DroppedPacketsInMac 	0
scalar warning_scenario.node[190].nic.mac1609_4 	TooLittleTime 	0
scalar warning_scenario.node[190].nic.mac1609_4 	TimesIntoBackoff 	7
scalar warning_scenario.node[190].nic.mac1609_4 	SlotsBackoff 	9
scalar warning_scenario.node[190].nic.mac1609_4 	NumInternalContention 	0
scalar warning_scenario.node[190].nic.mac1609_4 	totalBusyTime 	0.026799
scalar warning_scenario.node[190].veinsmobility 	startTime 	25140
scalar warning_scenario.node[190].veinsmobility 	totalTime 	7
scalar warning_scenario.node[190].veinsmobility 	stopTime 	25147.83614636
scalar warning_scenario.node[190].veinsmobility 	minSpeed 	1.8968505475437
scalar warning_scenario.node[190].veinsmobility 	maxSpeed 	11.462802600465
scalar warning_scenario.node[190].veinsmobility 	totalDistance 	49.056662848917
scalar warning_scenario.node[190].veinsmobility 	totalCO2Emission 	26.893122734082
scalar warning_scenario.node[170].nic.phy80211p 	busyTime 	0.0018874234227154
scalar warning_scenario.node[170].nic.mac1609_4 	ReceivedUnicastPackets 	0
scalar warning_scenario.node[170].nic.mac1609_4 	ReceivedBroadcasts 	586
scalar warning_scenario.node[170].nic.mac1609_4 	SentPackets 	88
scalar warning_scenario.node[170].nic.mac1609_4 	SNIRLostPackets 	633
scalar warning_scenario.node[170].nic.mac1609_4 	RXTXLostPackets 	0
scalar warning_scenario.node[170].nic.mac1609_4 	TotalLostPackets 	633
scalar warning_scenario.node[170].nic.mac1609_4 	DroppedPacketsInMac 	0
scalar warning_scenario.node[170].nic.mac1609_4 	TooLittleTime 	0
scalar warning_scenario.node[170].nic.mac1609_4 	TimesIntoBackoff 	88
scalar warning_scenario.node[170].nic.mac1609_4 	SlotsBackoff 	112
scalar warning_scenario.node[170].nic.mac1609_4 	NumInternalContention 	0
scalar warning_scenario.node[170].nic.mac1609_4 	totalBusyTime 	0.17784
scalar warning_scenario.node[170].veinsmobility 	startTime 	25060
scalar warning_scenario.node[170].veinsmobility 	totalTime 	87
scalar warning_scenario.node[170].veinsmobility 	stopTime 	25147.83614636
scalar warning_scenario.node[170].veinsmobility 	minSpeed 	1.4899092655396
scalar warning_scenario.node[170].veinsmobility 	maxSpeed 	9.1748904604444
scalar warning_scenario.node[170].veinsmobility 	totalDistance 	551.0642674616
scalar warning_scenario.node[170].veinsmobility 	totalCO2Emission 	156.07685938488
scalar warning_scenario.node[126].nic.phy80211p 	busyTime 	0.0021084300119552
scalar warning_scenario.node[126].nic.mac1609_4 	ReceivedUnicastPackets 	0
scalar warning_scenario.node[126].nic.mac1609_4 	ReceivedBroadcasts 	1078
scalar warning_scenario.node[126].nic.mac1609_4 	SentPackets 	329
scalar warning_scenario.node[126].nic.mac1609_4 	SNIRLostPackets 	4019
scalar warning_scenario.node[126].nic.mac1609_4 	RXTXLostPackets 	0
scalar warning_scenario.node[126].nic.mac1609_4 	TotalLostPackets 	4019
scalar warning_scenario.node[126].nic.mac1609_4 	DroppedPacketsInMac 	0
scalar warning_scenario.node[126].nic.mac1609_4 	TooLittleTime 	0
scalar warning_scenario.node[126].nic.mac1609_4 	TimesIntoBackoff 	329
scalar warning_scenario.node[126].nic.mac1609_4 	SlotsBackoff 	502
scalar warning_scenario.node[126].nic.mac1609_4 	NumInternalContention 	0
scalar warning_scenario.node[126].nic.mac1609_4 	totalBusyTime 	0.736633
scalar warning_scenario.node[126].veinsmobility 	startTime 	24819
scalar warning_scenario.node[126].veinsmobility 	totalTime 	328
scalar warning_scenario.node[126].veinsmobility 	stopTime 	25147.83614636
scalar warning_scenario.node[126].veinsmobility 	minSpeed 	6.4157666644823e-16
scalar warning_scenario.node[126].veinsmobility 	maxSpeed 	16.576083252864
scalar warning_scenario.node[126].veinsmobility 	totalDistance 	3416.6936945526
scalar warning_scenario.node[126].veinsmobility 	totalCO2Emission 	858.61722579911
scalar warning_scenario.node[181].nic.phy80211p 	busyTime 	0.0020555167479633
scalar warning_scenario.node[181].nic.mac1609_4 	ReceivedUnicastPackets 	0
scalar warning_scenario.node[181].nic.mac1609_4 	ReceivedBroadcasts 	388
scalar warning_scenario.node[181].nic.mac1609_4 	SentPackets 	48
scalar warning_scenario.node[181].nic.mac1609_4 	SNIRLostPackets 	335
scalar warning_scenario.node[181].nic.mac1609_4 	RXTXLostPackets 	0
scalar warning_scenario.node[181].nic.mac1609_4 	TotalLostPackets 	335
scalar warning_scenario.node[181].nic.mac1609_4 	DroppedPacketsInMac 	0
scalar warning_scenario.node[181].nic.mac1609_4 	TooLittleTime 	0
scalar warning_scenario.node[181].nic.mac1609_4 	TimesIntoBackoff 	48
scalar warning_scenario.node[181].nic.mac1609_4 	SlotsBackoff 	67
scalar warning_scenario.node[181].nic.mac1609_4 	NumInternalContention 	0
scalar warning_scenario.node[181].nic.mac1609_4 	totalBusyTime 	0.104904
scalar warning_scenario.node[181].veinsmobility 	startTime 	25100
scalar warning_scenario.node[181].veinsmobility 	totalTime 	47
scalar warning_scenario.node[181].veinsmobility 	stopTime 	25147.83614636
scalar warning_scenario.node[181].veinsmobility 	minSpeed 	2.7706609073636e-15
scalar warning_scenario.node[181].veinsmobility 	maxSpeed 	14.052376741253
scalar warning_scenario.node[181].veinsmobility 	totalDistance 	255.22899686938
scalar warning_scenario.node[181].veinsmobility 	totalCO2Emission 	97.133283698866
scalar warning_scenario.node[155].nic.phy80211p 	busyTime 	0.0058193300572463
scalar warning_scenario.node[155].nic.mac1609_4 	ReceivedUnicastPackets 	0
scalar warning_scenario.node[155].nic.mac1609_4 	ReceivedBroadcasts 	4897
scalar warning_scenario.node[155].nic.mac1609_4 	SentPackets 	147
scalar warning_scenario.node[155].nic.mac1609_4 	SNIRLostPackets 	1386
scalar warning_scenario.node[155].nic.mac1609_4 	RXTXLostPackets 	0
scalar warning_scenario.node[155].nic.mac1609_4 	TotalLostPackets 	1386
scalar warning_scenario.node[155].nic.mac1609_4 	DroppedPacketsInMac 	0
scalar warning_scenario.node[155].nic.mac1609_4 	TooLittleTime 	0
scalar warning_scenario.node[155].nic.mac1609_4 	TimesIntoBackoff 	147
scalar warning_scenario.node[155].nic.mac1609_4 	SlotsBackoff 	227
scalar warning_scenario.node[155].nic.mac1609_4 	NumInternalContention 	0
scalar warning_scenario.node[155].nic.mac1609_4 	totalBusyTime 	0.874627
scalar warning_scenario.node[155].veinsmobility 	startTime 	25001
scalar warning_scenario.node[155].veinsmobility 	totalTime 	146
scalar warning_scenario.node[155].veinsmobility 	stopTime 	25147.83614636
scalar warning_scenario.node[155].veinsmobility 	minSpeed 	0.040437190980954
scalar warning_scenario.node[155].veinsmobility 	maxSpeed 	14.64051875255
scalar warning_scenario.node[155].veinsmobility 	totalDistance 	1204.7845299916
scalar warning_scenario.node[155].veinsmobility 	totalCO2Emission 	376.60427594179
scalar warning_scenario.node[159].nic.phy80211p 	busyTime 	0.0016097760567946
scalar warning_scenario.node[159].nic.mac1609_4 	ReceivedUnicastPackets 	0
scalar warning_scenario.node[159].nic.mac1609_4 	ReceivedBroadcasts 	761
scalar warning_scenario.node[159].nic.mac1609_4 	SentPackets 	135
scalar warning_scenario.node[159].nic.mac1609_4 	SNIRLostPackets 	835
scalar warning_scenario.node[159].nic.mac1609_4 	RXTXLostPackets 	0
scalar warning_scenario.node[159].nic.mac1609_4 	TotalLostPackets 	835
scalar warning_scenario.node[159].nic.mac1609_4 	DroppedPacketsInMac 	0
scalar warning_scenario.node[159].nic.mac1609_4 	TooLittleTime 	0
scalar warning_scenario.node[159].nic.mac1609_4 	TimesIntoBackoff 	135
scalar warning_scenario.node[159].nic.mac1609_4 	SlotsBackoff 	188
scalar warning_scenario.node[159].nic.mac1609_4 	NumInternalContention 	0
scalar warning_scenario.node[159].nic.mac1609_4 	totalBusyTime 	0.235551
scalar warning_scenario.node[159].veinsmobility 	startTime 	25013
scalar warning_scenario.node[159].veinsmobility 	totalTime 	134
scalar warning_scenario.node[159].veinsmobility 	stopTime 	25147.83614636
scalar warning_scenario.node[159].veinsmobility 	minSpeed 	1.4346407485195
scalar warning_scenario.node[159].veinsmobility 	maxSpeed 	9.2672001019195
scalar warning_scenario.node[159].veinsmobility 	totalDistance 	960.89397713284
scalar warning_scenario.node[159].veinsmobility 	totalCO2Emission 	243.94044667454
scalar warning_scenario.rsu[0].nic.phy80211p 	busyTime 	0.00026617192672358
scalar warning_scenario.rsu[0].nic.mac1609_4 	ReceivedUnicastPackets 	0
scalar warning_scenario.rsu[0].nic.mac1609_4 	ReceivedBroadcasts 	34348
scalar warning_scenario.rsu[0].nic.mac1609_4 	SentPackets 	0
scalar warning_scenario.rsu[0].nic.mac1609_4 	SNIRLostPackets 	14870
scalar warning_scenario.rsu[0].nic.mac1609_4 	RXTXLostPackets 	0
scalar warning_scenario.rsu[0].nic.mac1609_4 	TotalLostPackets 	14870
scalar warning_scenario.rsu[0].nic.mac1609_4 	DroppedPacketsInMac 	0
scalar warning_scenario.rsu[0].nic.mac1609_4 	TooLittleTime 	0
scalar warning_scenario.rsu[0].nic.mac1609_4 	TimesIntoBackoff 	0
scalar warning_scenario.rsu[0].nic.mac1609_4 	SlotsBackoff 	0
scalar warning_scenario.rsu[0].nic.mac1609_4 	NumInternalContention 	0
scalar warning_scenario.rsu[0].nic.mac1609_4 	totalBusyTime 	6.693648
