version 2
run nodebug-0-20160926-13:43:58-28218
attr configname nodebug
attr datetime 20160926-13:43:58
attr experiment nodebug
attr inifile omnetpp.ini
attr iterationvars ""
attr iterationvars2 $repetition=0
attr measurement ""
attr network warning_scenario
attr processid 28218
attr repetition 0
attr replication #0
attr resultdir results
attr runnumber 0
attr seedset 0

scalar warning_scenario.node[5].nic.phy80211p 	busyTime 	0.00052066512702078
scalar warning_scenario.node[5].nic.mac1609_4 	ReceivedUnicastPackets 	0
scalar warning_scenario.node[5].nic.mac1609_4 	ReceivedBroadcasts 	541
scalar warning_scenario.node[5].nic.mac1609_4 	SentPackets 	433
scalar warning_scenario.node[5].nic.mac1609_4 	SNIRLostPackets 	1112
scalar warning_scenario.node[5].nic.mac1609_4 	RXTXLostPackets 	0
scalar warning_scenario.node[5].nic.mac1609_4 	TotalLostPackets 	1112
scalar warning_scenario.node[5].nic.mac1609_4 	DroppedPacketsInMac 	0
scalar warning_scenario.node[5].nic.mac1609_4 	TooLittleTime 	0
scalar warning_scenario.node[5].nic.mac1609_4 	TimesIntoBackoff 	433
scalar warning_scenario.node[5].nic.mac1609_4 	SlotsBackoff 	638
scalar warning_scenario.node[5].nic.mac1609_4 	NumInternalContention 	0
scalar warning_scenario.node[5].nic.mac1609_4 	totalBusyTime 	0.284769
scalar warning_scenario.node[5].veinsmobility 	startTime 	21767
scalar warning_scenario.node[5].veinsmobility 	totalTime 	432
scalar warning_scenario.node[5].veinsmobility 	stopTime 	22200
scalar warning_scenario.node[5].veinsmobility 	minSpeed 	2.4104075113631e-15
scalar warning_scenario.node[5].veinsmobility 	maxSpeed 	10.052046894249
scalar warning_scenario.node[5].veinsmobility 	totalDistance 	2863.7378188258
scalar warning_scenario.node[5].veinsmobility 	totalCO2Emission 	801.7701868539
scalar warning_scenario.node[9].nic.phy80211p 	busyTime 	0.00058356394129979
scalar warning_scenario.node[9].nic.mac1609_4 	ReceivedUnicastPackets 	0
scalar warning_scenario.node[9].nic.mac1609_4 	ReceivedBroadcasts 	1288
scalar warning_scenario.node[9].nic.mac1609_4 	SentPackets 	477
scalar warning_scenario.node[9].nic.mac1609_4 	SNIRLostPackets 	755
scalar warning_scenario.node[9].nic.mac1609_4 	RXTXLostPackets 	0
scalar warning_scenario.node[9].nic.mac1609_4 	TotalLostPackets 	755
scalar warning_scenario.node[9].nic.mac1609_4 	DroppedPacketsInMac 	0
scalar warning_scenario.node[9].nic.mac1609_4 	TooLittleTime 	0
scalar warning_scenario.node[9].nic.mac1609_4 	TimesIntoBackoff 	477
scalar warning_scenario.node[9].nic.mac1609_4 	SlotsBackoff 	736
scalar warning_scenario.node[9].nic.mac1609_4 	NumInternalContention 	0
scalar warning_scenario.node[9].nic.mac1609_4 	totalBusyTime 	0.343709
scalar warning_scenario.node[9].veinsmobility 	startTime 	21939
scalar warning_scenario.node[9].veinsmobility 	totalTime 	476
scalar warning_scenario.node[9].veinsmobility 	stopTime 	22416
scalar warning_scenario.node[9].veinsmobility 	minSpeed 	4.7356474419529e-12
scalar warning_scenario.node[9].veinsmobility 	maxSpeed 	15.986478647084
scalar warning_scenario.node[9].veinsmobility 	totalDistance 	5422.2399932001
scalar warning_scenario.node[9].veinsmobility 	totalCO2Emission 	1275.7088103894
scalar warning_scenario.node[19].nic.phy80211p 	busyTime 	0.0010236566523605
scalar warning_scenario.node[19].nic.mac1609_4 	ReceivedUnicastPackets 	0
scalar warning_scenario.node[19].nic.mac1609_4 	ReceivedBroadcasts 	824
scalar warning_scenario.node[19].nic.mac1609_4 	SentPackets 	233
scalar warning_scenario.node[19].nic.mac1609_4 	SNIRLostPackets 	926
scalar warning_scenario.node[19].nic.mac1609_4 	RXTXLostPackets 	0
scalar warning_scenario.node[19].nic.mac1609_4 	TotalLostPackets 	926
scalar warning_scenario.node[19].nic.mac1609_4 	DroppedPacketsInMac 	0
scalar warning_scenario.node[19].nic.mac1609_4 	TooLittleTime 	0
scalar warning_scenario.node[19].nic.mac1609_4 	TimesIntoBackoff 	233
scalar warning_scenario.node[19].nic.mac1609_4 	SlotsBackoff 	354
scalar warning_scenario.node[19].nic.mac1609_4 	NumInternalContention 	0
scalar warning_scenario.node[19].nic.mac1609_4 	totalBusyTime 	0.270433
scalar warning_scenario.node[19].veinsmobility 	startTime 	22203
scalar warning_scenario.node[19].veinsmobility 	totalTime 	232
scalar warning_scenario.node[19].veinsmobility 	stopTime 	22436
scalar warning_scenario.node[19].veinsmobility 	minSpeed 	9.8359754951885e-13
scalar warning_scenario.node[19].veinsmobility 	maxSpeed 	16.38410408374
scalar warning_scenario.node[19].veinsmobility 	totalDistance 	2531.5443753002
scalar warning_scenario.node[19].veinsmobility 	totalCO2Emission 	585.13903088029
scalar warning_scenario.node[0].nic.phy80211p 	busyTime 	0.00059704287369646
scalar warning_scenario.node[0].nic.mac1609_4 	ReceivedUnicastPackets 	0
scalar warning_scenario.node[0].nic.mac1609_4 	ReceivedBroadcasts 	2096
scalar warning_scenario.node[0].nic.mac1609_4 	SentPackets 	863
scalar warning_scenario.node[0].nic.mac1609_4 	SNIRLostPackets 	1686
scalar warning_scenario.node[0].nic.mac1609_4 	RXTXLostPackets 	0
scalar warning_scenario.node[0].nic.mac1609_4 	TotalLostPackets 	1686
scalar warning_scenario.node[0].nic.mac1609_4 	DroppedPacketsInMac 	0
scalar warning_scenario.node[0].nic.mac1609_4 	TooLittleTime 	0
scalar warning_scenario.node[0].nic.mac1609_4 	TimesIntoBackoff 	863
scalar warning_scenario.node[0].nic.mac1609_4 	SlotsBackoff 	1306
scalar warning_scenario.node[0].nic.mac1609_4 	NumInternalContention 	0
scalar warning_scenario.node[0].nic.mac1609_4 	totalBusyTime 	0.633479
scalar warning_scenario.node[0].veinsmobility 	startTime 	21614
scalar warning_scenario.node[0].veinsmobility 	totalTime 	862
scalar warning_scenario.node[0].veinsmobility 	stopTime 	22477
scalar warning_scenario.node[0].veinsmobility 	minSpeed 	0
scalar warning_scenario.node[0].veinsmobility 	maxSpeed 	15.500896998934
scalar warning_scenario.node[0].veinsmobility 	totalDistance 	8045.0337591519
scalar warning_scenario.node[0].veinsmobility 	totalCO2Emission 	2110.7727105102
scalar warning_scenario.node[2].nic.phy80211p 	busyTime 	0.0007113261131168
scalar warning_scenario.node[2].nic.mac1609_4 	ReceivedUnicastPackets 	0
scalar warning_scenario.node[2].nic.mac1609_4 	ReceivedBroadcasts 	2212
scalar warning_scenario.node[2].nic.mac1609_4 	SentPackets 	831
scalar warning_scenario.node[2].nic.mac1609_4 	SNIRLostPackets 	2125
scalar warning_scenario.node[2].nic.mac1609_4 	RXTXLostPackets 	0
scalar warning_scenario.node[2].nic.mac1609_4 	TotalLostPackets 	2125
scalar warning_scenario.node[2].nic.mac1609_4 	DroppedPacketsInMac 	0
scalar warning_scenario.node[2].nic.mac1609_4 	TooLittleTime 	0
scalar warning_scenario.node[2].nic.mac1609_4 	TimesIntoBackoff 	831
scalar warning_scenario.node[2].nic.mac1609_4 	SlotsBackoff 	1200
scalar warning_scenario.node[2].nic.mac1609_4 	NumInternalContention 	0
scalar warning_scenario.node[2].nic.mac1609_4 	totalBusyTime 	0.704959
scalar warning_scenario.node[2].veinsmobility 	startTime 	21677
scalar warning_scenario.node[2].veinsmobility 	totalTime 	830
scalar warning_scenario.node[2].veinsmobility 	stopTime 	22508
scalar warning_scenario.node[2].veinsmobility 	minSpeed 	2.5617712884428e-15
scalar warning_scenario.node[2].veinsmobility 	maxSpeed 	10.61192611015
scalar warning_scenario.node[2].veinsmobility 	totalDistance 	6249.4957593163
scalar warning_scenario.node[2].veinsmobility 	totalCO2Emission 	1608.7223008172
scalar warning_scenario.node[8].nic.phy80211p 	busyTime 	0.00075460406885765
scalar warning_scenario.node[8].nic.mac1609_4 	ReceivedUnicastPackets 	0
scalar warning_scenario.node[8].nic.mac1609_4 	ReceivedBroadcasts 	1938
scalar warning_scenario.node[8].nic.mac1609_4 	SentPackets 	639
scalar warning_scenario.node[8].nic.mac1609_4 	SNIRLostPackets 	1600
scalar warning_scenario.node[8].nic.mac1609_4 	RXTXLostPackets 	0
scalar warning_scenario.node[8].nic.mac1609_4 	TotalLostPackets 	1600
scalar warning_scenario.node[8].nic.mac1609_4 	DroppedPacketsInMac 	0
scalar warning_scenario.node[8].nic.mac1609_4 	TooLittleTime 	0
scalar warning_scenario.node[8].nic.mac1609_4 	TimesIntoBackoff 	639
scalar warning_scenario.node[8].nic.mac1609_4 	SlotsBackoff 	997
scalar warning_scenario.node[8].nic.mac1609_4 	NumInternalContention 	0
scalar warning_scenario.node[8].nic.mac1609_4 	totalBusyTime 	0.569735
scalar warning_scenario.node[8].veinsmobility 	startTime 	21906
scalar warning_scenario.node[8].veinsmobility 	totalTime 	638
scalar warning_scenario.node[8].veinsmobility 	stopTime 	22545
scalar warning_scenario.node[8].veinsmobility 	minSpeed 	0
scalar warning_scenario.node[8].veinsmobility 	maxSpeed 	14.166692202724
scalar warning_scenario.node[8].veinsmobility 	totalDistance 	5410.2181128172
scalar warning_scenario.node[8].veinsmobility 	totalCO2Emission 	1499.6303087693
scalar warning_scenario.node[17].nic.phy80211p 	busyTime 	0.0007996266666667
scalar warning_scenario.node[17].nic.mac1609_4 	ReceivedUnicastPackets 	0
scalar warning_scenario.node[17].nic.mac1609_4 	ReceivedBroadcasts 	1254
scalar warning_scenario.node[17].nic.mac1609_4 	SentPackets 	450
scalar warning_scenario.node[17].nic.mac1609_4 	SNIRLostPackets 	1389
scalar warning_scenario.node[17].nic.mac1609_4 	RXTXLostPackets 	0
scalar warning_scenario.node[17].nic.mac1609_4 	TotalLostPackets 	1389
scalar warning_scenario.node[17].nic.mac1609_4 	DroppedPacketsInMac 	0
scalar warning_scenario.node[17].nic.mac1609_4 	TooLittleTime 	0
scalar warning_scenario.node[17].nic.mac1609_4 	TimesIntoBackoff 	450
scalar warning_scenario.node[17].nic.mac1609_4 	SlotsBackoff 	675
scalar warning_scenario.node[17].nic.mac1609_4 	NumInternalContention 	0
scalar warning_scenario.node[17].nic.mac1609_4 	totalBusyTime 	0.421482
scalar warning_scenario.node[17].veinsmobility 	startTime 	22131
scalar warning_scenario.node[17].veinsmobility 	totalTime 	449
scalar warning_scenario.node[17].veinsmobility 	stopTime 	22581
scalar warning_scenario.node[17].veinsmobility 	minSpeed 	2.7200348249844e-15
scalar warning_scenario.node[17].veinsmobility 	maxSpeed 	23.309346105901
scalar warning_scenario.node[17].veinsmobility 	totalDistance 	6075.3588163501
scalar warning_scenario.node[17].veinsmobility 	totalCO2Emission 	1353.7332006112
scalar warning_scenario.node[12].nic.phy80211p 	busyTime 	0.00074495423023585
scalar warning_scenario.node[12].nic.mac1609_4 	ReceivedUnicastPackets 	0
scalar warning_scenario.node[12].nic.mac1609_4 	ReceivedBroadcasts 	1480
scalar warning_scenario.node[12].nic.mac1609_4 	SentPackets 	721
scalar warning_scenario.node[12].nic.mac1609_4 	SNIRLostPackets 	2459
scalar warning_scenario.node[12].nic.mac1609_4 	RXTXLostPackets 	0
scalar warning_scenario.node[12].nic.mac1609_4 	TotalLostPackets 	2459
scalar warning_scenario.node[12].nic.mac1609_4 	DroppedPacketsInMac 	0
scalar warning_scenario.node[12].nic.mac1609_4 	TooLittleTime 	0
scalar warning_scenario.node[12].nic.mac1609_4 	TimesIntoBackoff 	721
scalar warning_scenario.node[12].nic.mac1609_4 	SlotsBackoff 	1063
scalar warning_scenario.node[12].nic.mac1609_4 	NumInternalContention 	0
scalar warning_scenario.node[12].nic.mac1609_4 	totalBusyTime 	0.635889
scalar warning_scenario.node[12].veinsmobility 	startTime 	21981
scalar warning_scenario.node[12].veinsmobility 	totalTime 	720
scalar warning_scenario.node[12].veinsmobility 	stopTime 	22702
scalar warning_scenario.node[12].veinsmobility 	minSpeed 	2.4340478089129e-15
scalar warning_scenario.node[12].veinsmobility 	maxSpeed 	12.350240099817
scalar warning_scenario.node[12].veinsmobility 	totalDistance 	5473.2905651005
scalar warning_scenario.node[12].veinsmobility 	totalCO2Emission 	1518.7562152628
scalar warning_scenario.node[3].nic.phy80211p 	busyTime 	0.00018231237322515
scalar warning_scenario.node[3].nic.mac1609_4 	ReceivedUnicastPackets 	0
scalar warning_scenario.node[3].nic.mac1609_4 	ReceivedBroadcasts 	554
scalar warning_scenario.node[3].nic.mac1609_4 	SentPackets 	986
scalar warning_scenario.node[3].nic.mac1609_4 	SNIRLostPackets 	764
scalar warning_scenario.node[3].nic.mac1609_4 	RXTXLostPackets 	0
scalar warning_scenario.node[3].nic.mac1609_4 	TotalLostPackets 	764
scalar warning_scenario.node[3].nic.mac1609_4 	DroppedPacketsInMac 	0
scalar warning_scenario.node[3].nic.mac1609_4 	TooLittleTime 	0
scalar warning_scenario.node[3].nic.mac1609_4 	TimesIntoBackoff 	986
scalar warning_scenario.node[3].nic.mac1609_4 	SlotsBackoff 	1484
scalar warning_scenario.node[3].nic.mac1609_4 	NumInternalContention 	0
scalar warning_scenario.node[3].nic.mac1609_4 	totalBusyTime 	0.314842
scalar warning_scenario.node[3].veinsmobility 	startTime 	21722
scalar warning_scenario.node[3].veinsmobility 	totalTime 	985
scalar warning_scenario.node[3].veinsmobility 	stopTime 	22708
scalar warning_scenario.node[3].veinsmobility 	minSpeed 	0
scalar warning_scenario.node[3].veinsmobility 	maxSpeed 	15.628668193569
scalar warning_scenario.node[3].veinsmobility 	totalDistance 	9430.0970882835
scalar warning_scenario.node[3].veinsmobility 	totalCO2Emission 	2400.9997242042
scalar warning_scenario.node[10].nic.phy80211p 	busyTime 	0.00071764461738009
scalar warning_scenario.node[10].nic.mac1609_4 	ReceivedUnicastPackets 	0
scalar warning_scenario.node[10].nic.mac1609_4 	ReceivedBroadcasts 	2048
scalar warning_scenario.node[10].nic.mac1609_4 	SentPackets 	771
scalar warning_scenario.node[10].nic.mac1609_4 	SNIRLostPackets 	2011
scalar warning_scenario.node[10].nic.mac1609_4 	RXTXLostPackets 	0
scalar warning_scenario.node[10].nic.mac1609_4 	TotalLostPackets 	2011
scalar warning_scenario.node[10].nic.mac1609_4 	DroppedPacketsInMac 	0
scalar warning_scenario.node[10].nic.mac1609_4 	TooLittleTime 	0
scalar warning_scenario.node[10].nic.mac1609_4 	TimesIntoBackoff 	771
scalar warning_scenario.node[10].nic.mac1609_4 	SlotsBackoff 	1148
scalar warning_scenario.node[10].nic.mac1609_4 	NumInternalContention 	0
scalar warning_scenario.node[10].nic.mac1609_4 	totalBusyTime 	0.658931
scalar warning_scenario.node[10].veinsmobility 	startTime 	21965
scalar warning_scenario.node[10].veinsmobility 	totalTime 	770
scalar warning_scenario.node[10].veinsmobility 	stopTime 	22736
scalar warning_scenario.node[10].veinsmobility 	minSpeed 	0
scalar warning_scenario.node[10].veinsmobility 	maxSpeed 	14.297090930488
scalar warning_scenario.node[10].veinsmobility 	totalDistance 	6589.5264362481
scalar warning_scenario.node[10].veinsmobility 	totalCO2Emission 	1731.0588749884
scalar warning_scenario.node[23].nic.phy80211p 	busyTime 	0.0011764175365346
scalar warning_scenario.node[23].nic.mac1609_4 	ReceivedUnicastPackets 	0
scalar warning_scenario.node[23].nic.mac1609_4 	ReceivedBroadcasts 	3007
scalar warning_scenario.node[23].nic.mac1609_4 	SentPackets 	479
scalar warning_scenario.node[23].nic.mac1609_4 	SNIRLostPackets 	1127
scalar warning_scenario.node[23].nic.mac1609_4 	RXTXLostPackets 	0
scalar warning_scenario.node[23].nic.mac1609_4 	TotalLostPackets 	1127
scalar warning_scenario.node[23].nic.mac1609_4 	DroppedPacketsInMac 	0
scalar warning_scenario.node[23].nic.mac1609_4 	TooLittleTime 	0
scalar warning_scenario.node[23].nic.mac1609_4 	TimesIntoBackoff 	479
scalar warning_scenario.node[23].nic.mac1609_4 	SlotsBackoff 	745
scalar warning_scenario.node[23].nic.mac1609_4 	NumInternalContention 	0
scalar warning_scenario.node[23].nic.mac1609_4 	totalBusyTime 	0.629127
scalar warning_scenario.node[23].veinsmobility 	startTime 	22270
scalar warning_scenario.node[23].veinsmobility 	totalTime 	478
scalar warning_scenario.node[23].veinsmobility 	stopTime 	22749
scalar warning_scenario.node[23].veinsmobility 	minSpeed 	2.4555112148619e-15
scalar warning_scenario.node[23].veinsmobility 	maxSpeed 	16.424489543635
scalar warning_scenario.node[23].veinsmobility 	totalDistance 	5299.5856889203
scalar warning_scenario.node[23].veinsmobility 	totalCO2Emission 	1291.4890949662
scalar warning_scenario.node[22].nic.phy80211p 	busyTime 	0.00058761089494164
scalar warning_scenario.node[22].nic.mac1609_4 	ReceivedUnicastPackets 	0
scalar warning_scenario.node[22].nic.mac1609_4 	ReceivedBroadcasts 	609
scalar warning_scenario.node[22].nic.mac1609_4 	SentPackets 	514
scalar warning_scenario.node[22].nic.mac1609_4 	SNIRLostPackets 	1609
scalar warning_scenario.node[22].nic.mac1609_4 	RXTXLostPackets 	0
scalar warning_scenario.node[22].nic.mac1609_4 	TotalLostPackets 	1609
scalar warning_scenario.node[22].nic.mac1609_4 	DroppedPacketsInMac 	0
scalar warning_scenario.node[22].nic.mac1609_4 	TooLittleTime 	0
scalar warning_scenario.node[22].nic.mac1609_4 	TimesIntoBackoff 	514
scalar warning_scenario.node[22].nic.mac1609_4 	SlotsBackoff 	761
scalar warning_scenario.node[22].nic.mac1609_4 	NumInternalContention 	0
scalar warning_scenario.node[22].nic.mac1609_4 	totalBusyTime 	0.37245
scalar warning_scenario.node[22].veinsmobility 	startTime 	22258
scalar warning_scenario.node[22].veinsmobility 	totalTime 	513
scalar warning_scenario.node[22].veinsmobility 	stopTime 	22772
scalar warning_scenario.node[22].veinsmobility 	minSpeed 	1.5710295354482
scalar warning_scenario.node[22].veinsmobility 	maxSpeed 	24.404960658199
scalar warning_scenario.node[22].veinsmobility 	totalDistance 	8904.1956393883
scalar warning_scenario.node[22].veinsmobility 	totalCO2Emission 	1653.8285092139
scalar warning_scenario.node[7].nic.phy80211p 	busyTime 	0.00071617577706331
scalar warning_scenario.node[7].nic.mac1609_4 	ReceivedUnicastPackets 	0
scalar warning_scenario.node[7].nic.mac1609_4 	ReceivedBroadcasts 	3393
scalar warning_scenario.node[7].nic.mac1609_4 	SentPackets 	933
scalar warning_scenario.node[7].nic.mac1609_4 	SNIRLostPackets 	1507
scalar warning_scenario.node[7].nic.mac1609_4 	RXTXLostPackets 	0
scalar warning_scenario.node[7].nic.mac1609_4 	TotalLostPackets 	1507
scalar warning_scenario.node[7].nic.mac1609_4 	DroppedPacketsInMac 	0
scalar warning_scenario.node[7].nic.mac1609_4 	TooLittleTime 	0
scalar warning_scenario.node[7].nic.mac1609_4 	TimesIntoBackoff 	933
scalar warning_scenario.node[7].nic.mac1609_4 	SlotsBackoff 	1406
scalar warning_scenario.node[7].nic.mac1609_4 	NumInternalContention 	0
scalar warning_scenario.node[7].nic.mac1609_4 	totalBusyTime 	0.796013
scalar warning_scenario.node[7].veinsmobility 	startTime 	21859
scalar warning_scenario.node[7].veinsmobility 	totalTime 	932
scalar warning_scenario.node[7].veinsmobility 	stopTime 	22792
scalar warning_scenario.node[7].veinsmobility 	minSpeed 	2.5197616993253e-15
scalar warning_scenario.node[7].veinsmobility 	maxSpeed 	26.13055957663
scalar warning_scenario.node[7].veinsmobility 	totalDistance 	15606.873626353
scalar warning_scenario.node[7].veinsmobility 	totalCO2Emission 	2914.5402630699
scalar warning_scenario.node[29].nic.phy80211p 	busyTime 	0.0014649056603775
scalar warning_scenario.node[29].nic.mac1609_4 	ReceivedUnicastPackets 	0
scalar warning_scenario.node[29].nic.mac1609_4 	ReceivedBroadcasts 	2247
scalar warning_scenario.node[29].nic.mac1609_4 	SentPackets 	371
scalar warning_scenario.node[29].nic.mac1609_4 	SNIRLostPackets 	1736
scalar warning_scenario.node[29].nic.mac1609_4 	RXTXLostPackets 	0
scalar warning_scenario.node[29].nic.mac1609_4 	TotalLostPackets 	1736
scalar warning_scenario.node[29].nic.mac1609_4 	DroppedPacketsInMac 	0
scalar warning_scenario.node[29].nic.mac1609_4 	TooLittleTime 	0
scalar warning_scenario.node[29].nic.mac1609_4 	TimesIntoBackoff 	371
scalar warning_scenario.node[29].nic.mac1609_4 	SlotsBackoff 	582
scalar warning_scenario.node[29].nic.mac1609_4 	NumInternalContention 	0
scalar warning_scenario.node[29].nic.mac1609_4 	totalBusyTime 	0.594307
scalar warning_scenario.node[29].veinsmobility 	startTime 	22461
scalar warning_scenario.node[29].veinsmobility 	totalTime 	370
scalar warning_scenario.node[29].veinsmobility 	stopTime 	22832
scalar warning_scenario.node[29].veinsmobility 	minSpeed 	1.0771878287506e-13
scalar warning_scenario.node[29].veinsmobility 	maxSpeed 	16.151532366886
scalar warning_scenario.node[29].veinsmobility 	totalDistance 	4362.9376349912
scalar warning_scenario.node[29].veinsmobility 	totalCO2Emission 	1064.9252181805
scalar warning_scenario.node[24].nic.phy80211p 	busyTime 	0.00062914821763604
scalar warning_scenario.node[24].nic.mac1609_4 	ReceivedUnicastPackets 	0
scalar warning_scenario.node[24].nic.mac1609_4 	ReceivedBroadcasts 	891
scalar warning_scenario.node[24].nic.mac1609_4 	SentPackets 	533
scalar warning_scenario.node[24].nic.mac1609_4 	SNIRLostPackets 	1570
scalar warning_scenario.node[24].nic.mac1609_4 	RXTXLostPackets 	0
scalar warning_scenario.node[24].nic.mac1609_4 	TotalLostPackets 	1570
scalar warning_scenario.node[24].nic.mac1609_4 	DroppedPacketsInMac 	0
scalar warning_scenario.node[24].nic.mac1609_4 	TooLittleTime 	0
scalar warning_scenario.node[24].nic.mac1609_4 	TimesIntoBackoff 	533
scalar warning_scenario.node[24].nic.mac1609_4 	SlotsBackoff 	838
scalar warning_scenario.node[24].nic.mac1609_4 	NumInternalContention 	0
scalar warning_scenario.node[24].nic.mac1609_4 	totalBusyTime 	0.408357
scalar warning_scenario.node[24].veinsmobility 	startTime 	22302
scalar warning_scenario.node[24].veinsmobility 	totalTime 	532
scalar warning_scenario.node[24].veinsmobility 	stopTime 	22835
scalar warning_scenario.node[24].veinsmobility 	minSpeed 	2.9055047689154e-15
scalar warning_scenario.node[24].veinsmobility 	maxSpeed 	29.211034371402
scalar warning_scenario.node[24].veinsmobility 	totalDistance 	6918.6086146903
scalar warning_scenario.node[24].veinsmobility 	totalCO2Emission 	1597.3660552136
scalar warning_scenario.node[30].nic.phy80211p 	busyTime 	0.0017025473684212
scalar warning_scenario.node[30].nic.mac1609_4 	ReceivedUnicastPackets 	0
scalar warning_scenario.node[30].nic.mac1609_4 	ReceivedBroadcasts 	3565
scalar warning_scenario.node[30].nic.mac1609_4 	SentPackets 	380
scalar warning_scenario.node[30].nic.mac1609_4 	SNIRLostPackets 	1178
scalar warning_scenario.node[30].nic.mac1609_4 	RXTXLostPackets 	0
scalar warning_scenario.node[30].nic.mac1609_4 	TotalLostPackets 	1178
scalar warning_scenario.node[30].nic.mac1609_4 	DroppedPacketsInMac 	0
scalar warning_scenario.node[30].nic.mac1609_4 	TooLittleTime 	0
scalar warning_scenario.node[30].nic.mac1609_4 	TimesIntoBackoff 	380
scalar warning_scenario.node[30].nic.mac1609_4 	SlotsBackoff 	575
scalar warning_scenario.node[30].nic.mac1609_4 	NumInternalContention 	0
scalar warning_scenario.node[30].nic.mac1609_4 	totalBusyTime 	0.699028
scalar warning_scenario.node[30].veinsmobility 	startTime 	22489
scalar warning_scenario.node[30].veinsmobility 	totalTime 	379
scalar warning_scenario.node[30].veinsmobility 	stopTime 	22869
scalar warning_scenario.node[30].veinsmobility 	minSpeed 	8.8957550783449e-13
scalar warning_scenario.node[30].veinsmobility 	maxSpeed 	20.838763674408
scalar warning_scenario.node[30].veinsmobility 	totalDistance 	3968.3989218634
scalar warning_scenario.node[30].veinsmobility 	totalCO2Emission 	917.95871760099
scalar warning_scenario.node[25].nic.phy80211p 	busyTime 	0.0013680839160841
scalar warning_scenario.node[25].nic.mac1609_4 	ReceivedUnicastPackets 	0
scalar warning_scenario.node[25].nic.mac1609_4 	ReceivedBroadcasts 	2754
scalar warning_scenario.node[25].nic.mac1609_4 	SentPackets 	572
scalar warning_scenario.node[25].nic.mac1609_4 	SNIRLostPackets 	2984
scalar warning_scenario.node[25].nic.mac1609_4 	RXTXLostPackets 	0
scalar warning_scenario.node[25].nic.mac1609_4 	TotalLostPackets 	2984
scalar warning_scenario.node[25].nic.mac1609_4 	DroppedPacketsInMac 	0
scalar warning_scenario.node[25].nic.mac1609_4 	TooLittleTime 	0
scalar warning_scenario.node[25].nic.mac1609_4 	TimesIntoBackoff 	572
scalar warning_scenario.node[25].nic.mac1609_4 	SlotsBackoff 	884
scalar warning_scenario.node[25].nic.mac1609_4 	NumInternalContention 	0
scalar warning_scenario.node[25].nic.mac1609_4 	totalBusyTime 	0.860908
scalar warning_scenario.node[25].veinsmobility 	startTime 	22317
scalar warning_scenario.node[25].veinsmobility 	totalTime 	571
scalar warning_scenario.node[25].veinsmobility 	stopTime 	22889
scalar warning_scenario.node[25].veinsmobility 	minSpeed 	0
scalar warning_scenario.node[25].veinsmobility 	maxSpeed 	15.270209966505
scalar warning_scenario.node[25].veinsmobility 	totalDistance 	4948.0588919318
scalar warning_scenario.node[25].veinsmobility 	totalCO2Emission 	1325.916951144
scalar warning_scenario.node[27].nic.phy80211p 	busyTime 	0.0015493692307694
scalar warning_scenario.node[27].nic.mac1609_4 	ReceivedUnicastPackets 	0
scalar warning_scenario.node[27].nic.mac1609_4 	ReceivedBroadcasts 	4082
scalar warning_scenario.node[27].nic.mac1609_4 	SentPackets 	520
scalar warning_scenario.node[27].nic.mac1609_4 	SNIRLostPackets 	1827
scalar warning_scenario.node[27].nic.mac1609_4 	RXTXLostPackets 	0
scalar warning_scenario.node[27].nic.mac1609_4 	TotalLostPackets 	1827
scalar warning_scenario.node[27].nic.mac1609_4 	DroppedPacketsInMac 	0
scalar warning_scenario.node[27].nic.mac1609_4 	TooLittleTime 	0
scalar warning_scenario.node[27].nic.mac1609_4 	TimesIntoBackoff 	520
scalar warning_scenario.node[27].nic.mac1609_4 	SlotsBackoff 	843
scalar warning_scenario.node[27].nic.mac1609_4 	NumInternalContention 	0
scalar warning_scenario.node[27].nic.mac1609_4 	totalBusyTime 	0.876912
scalar warning_scenario.node[27].veinsmobility 	startTime 	22371
scalar warning_scenario.node[27].veinsmobility 	totalTime 	519
scalar warning_scenario.node[27].veinsmobility 	stopTime 	22891
scalar warning_scenario.node[27].veinsmobility 	minSpeed 	2.707051984351e-15
scalar warning_scenario.node[27].veinsmobility 	maxSpeed 	15.637165718602
scalar warning_scenario.node[27].veinsmobility 	totalDistance 	4712.8703650568
scalar warning_scenario.node[27].veinsmobility 	totalCO2Emission 	1293.3240994032
scalar warning_scenario.node[18].nic.phy80211p 	busyTime 	0.00046128943758575
scalar warning_scenario.node[18].nic.mac1609_4 	ReceivedUnicastPackets 	0
scalar warning_scenario.node[18].nic.mac1609_4 	ReceivedBroadcasts 	973
scalar warning_scenario.node[18].nic.mac1609_4 	SentPackets 	729
scalar warning_scenario.node[18].nic.mac1609_4 	SNIRLostPackets 	1494
scalar warning_scenario.node[18].nic.mac1609_4 	RXTXLostPackets 	0
scalar warning_scenario.node[18].nic.mac1609_4 	TotalLostPackets 	1494
scalar warning_scenario.node[18].nic.mac1609_4 	DroppedPacketsInMac 	0
scalar warning_scenario.node[18].nic.mac1609_4 	TooLittleTime 	0
scalar warning_scenario.node[18].nic.mac1609_4 	TimesIntoBackoff 	729
scalar warning_scenario.node[18].nic.mac1609_4 	SlotsBackoff 	1109
scalar warning_scenario.node[18].nic.mac1609_4 	NumInternalContention 	0
scalar warning_scenario.node[18].nic.mac1609_4 	totalBusyTime 	0.436153
scalar warning_scenario.node[18].veinsmobility 	startTime 	22162
scalar warning_scenario.node[18].veinsmobility 	totalTime 	728
scalar warning_scenario.node[18].veinsmobility 	stopTime 	22891
scalar warning_scenario.node[18].veinsmobility 	minSpeed 	0
scalar warning_scenario.node[18].veinsmobility 	maxSpeed 	18.019039313301
scalar warning_scenario.node[18].veinsmobility 	totalDistance 	6707.798750227
scalar warning_scenario.node[18].veinsmobility 	totalCO2Emission 	1564.0977216096
scalar warning_scenario.node[1].nic.phy80211p 	busyTime 	0.00011104327301337
scalar warning_scenario.node[1].nic.mac1609_4 	ReceivedUnicastPackets 	0
scalar warning_scenario.node[1].nic.mac1609_4 	ReceivedBroadcasts 	283
scalar warning_scenario.node[1].nic.mac1609_4 	SentPackets 	1271
scalar warning_scenario.node[1].nic.mac1609_4 	SNIRLostPackets 	751
scalar warning_scenario.node[1].nic.mac1609_4 	RXTXLostPackets 	0
scalar warning_scenario.node[1].nic.mac1609_4 	TotalLostPackets 	751
scalar warning_scenario.node[1].nic.mac1609_4 	DroppedPacketsInMac 	0
scalar warning_scenario.node[1].nic.mac1609_4 	TooLittleTime 	0
scalar warning_scenario.node[1].nic.mac1609_4 	TimesIntoBackoff 	1271
scalar warning_scenario.node[1].nic.mac1609_4 	SlotsBackoff 	1941
scalar warning_scenario.node[1].nic.mac1609_4 	NumInternalContention 	0
scalar warning_scenario.node[1].nic.mac1609_4 	totalBusyTime 	0.315263
scalar warning_scenario.node[1].veinsmobility 	startTime 	21666
scalar warning_scenario.node[1].veinsmobility 	totalTime 	1270
scalar warning_scenario.node[1].veinsmobility 	stopTime 	22937
scalar warning_scenario.node[1].veinsmobility 	minSpeed 	0
scalar warning_scenario.node[1].veinsmobility 	maxSpeed 	24.531251967443
scalar warning_scenario.node[1].veinsmobility 	totalDistance 	18325.866886713
scalar warning_scenario.node[1].veinsmobility 	totalCO2Emission 	3462.0446300796
scalar warning_scenario.node[14].nic.phy80211p 	busyTime 	0.0010981344902387
scalar warning_scenario.node[14].nic.mac1609_4 	ReceivedUnicastPackets 	0
scalar warning_scenario.node[14].nic.mac1609_4 	ReceivedBroadcasts 	4542
scalar warning_scenario.node[14].nic.mac1609_4 	SentPackets 	922
scalar warning_scenario.node[14].nic.mac1609_4 	SNIRLostPackets 	2882
scalar warning_scenario.node[14].nic.mac1609_4 	RXTXLostPackets 	0
scalar warning_scenario.node[14].nic.mac1609_4 	TotalLostPackets 	2882
scalar warning_scenario.node[14].nic.mac1609_4 	DroppedPacketsInMac 	0
scalar warning_scenario.node[14].nic.mac1609_4 	TooLittleTime 	0
scalar warning_scenario.node[14].nic.mac1609_4 	TimesIntoBackoff 	922
scalar warning_scenario.node[14].nic.mac1609_4 	SlotsBackoff 	1448
scalar warning_scenario.node[14].nic.mac1609_4 	NumInternalContention 	0
scalar warning_scenario.node[14].nic.mac1609_4 	totalBusyTime 	1.138794
scalar warning_scenario.node[14].veinsmobility 	startTime 	22036
scalar warning_scenario.node[14].veinsmobility 	totalTime 	921
scalar warning_scenario.node[14].veinsmobility 	stopTime 	22958
scalar warning_scenario.node[14].veinsmobility 	minSpeed 	0
scalar warning_scenario.node[14].veinsmobility 	maxSpeed 	14.51155380852
scalar warning_scenario.node[14].veinsmobility 	totalDistance 	7179.9446715897
scalar warning_scenario.node[14].veinsmobility 	totalCO2Emission 	1790.4567427646
scalar warning_scenario.node[28].nic.phy80211p 	busyTime 	0.0014708292682929
scalar warning_scenario.node[28].nic.mac1609_4 	ReceivedUnicastPackets 	0
scalar warning_scenario.node[28].nic.mac1609_4 	ReceivedBroadcasts 	3789
scalar warning_scenario.node[28].nic.mac1609_4 	SentPackets 	574
scalar warning_scenario.node[28].nic.mac1609_4 	SNIRLostPackets 	2399
scalar warning_scenario.node[28].nic.mac1609_4 	RXTXLostPackets 	0
scalar warning_scenario.node[28].nic.mac1609_4 	TotalLostPackets 	2399
scalar warning_scenario.node[28].nic.mac1609_4 	DroppedPacketsInMac 	0
scalar warning_scenario.node[28].nic.mac1609_4 	TooLittleTime 	0
scalar warning_scenario.node[28].nic.mac1609_4 	TimesIntoBackoff 	574
scalar warning_scenario.node[28].nic.mac1609_4 	SlotsBackoff 	848
scalar warning_scenario.node[28].nic.mac1609_4 	NumInternalContention 	0
scalar warning_scenario.node[28].nic.mac1609_4 	totalBusyTime 	0.922894
scalar warning_scenario.node[28].veinsmobility 	startTime 	22399
scalar warning_scenario.node[28].veinsmobility 	totalTime 	573
scalar warning_scenario.node[28].veinsmobility 	stopTime 	22973
scalar warning_scenario.node[28].veinsmobility 	minSpeed 	0
scalar warning_scenario.node[28].veinsmobility 	maxSpeed 	16.227873344233
scalar warning_scenario.node[28].veinsmobility 	totalDistance 	6106.8553057449
scalar warning_scenario.node[28].veinsmobility 	totalCO2Emission 	1551.2644934649
scalar warning_scenario.node[16].nic.phy80211p 	busyTime 	0.00097800000000012
scalar warning_scenario.node[16].nic.mac1609_4 	ReceivedUnicastPackets 	0
scalar warning_scenario.node[16].nic.mac1609_4 	ReceivedBroadcasts 	2918
scalar warning_scenario.node[16].nic.mac1609_4 	SentPackets 	920
scalar warning_scenario.node[16].nic.mac1609_4 	SNIRLostPackets 	3680
scalar warning_scenario.node[16].nic.mac1609_4 	RXTXLostPackets 	0
scalar warning_scenario.node[16].nic.mac1609_4 	TotalLostPackets 	3680
scalar warning_scenario.node[16].nic.mac1609_4 	DroppedPacketsInMac 	0
scalar warning_scenario.node[16].nic.mac1609_4 	TooLittleTime 	0
scalar warning_scenario.node[16].nic.mac1609_4 	TimesIntoBackoff 	920
scalar warning_scenario.node[16].nic.mac1609_4 	SlotsBackoff 	1363
scalar warning_scenario.node[16].nic.mac1609_4 	NumInternalContention 	0
scalar warning_scenario.node[16].nic.mac1609_4 	totalBusyTime 	1.0258
scalar warning_scenario.node[16].veinsmobility 	startTime 	22067
scalar warning_scenario.node[16].veinsmobility 	totalTime 	919
scalar warning_scenario.node[16].veinsmobility 	stopTime 	22987
scalar warning_scenario.node[16].veinsmobility 	minSpeed 	0
scalar warning_scenario.node[16].veinsmobility 	maxSpeed 	31.58661967432
scalar warning_scenario.node[16].veinsmobility 	totalDistance 	13189.887150561
scalar warning_scenario.node[16].veinsmobility 	totalCO2Emission 	2718.0441440617
scalar warning_scenario.node[11].nic.phy80211p 	busyTime 	0.00071240157480323
scalar warning_scenario.node[11].nic.mac1609_4 	ReceivedUnicastPackets 	0
scalar warning_scenario.node[11].nic.mac1609_4 	ReceivedBroadcasts 	2323
scalar warning_scenario.node[11].nic.mac1609_4 	SentPackets 	1016
scalar warning_scenario.node[11].nic.mac1609_4 	SNIRLostPackets 	2984
scalar warning_scenario.node[11].nic.mac1609_4 	RXTXLostPackets 	0
scalar warning_scenario.node[11].nic.mac1609_4 	TotalLostPackets 	2984
scalar warning_scenario.node[11].nic.mac1609_4 	DroppedPacketsInMac 	0
scalar warning_scenario.node[11].nic.mac1609_4 	TooLittleTime 	0
scalar warning_scenario.node[11].nic.mac1609_4 	TimesIntoBackoff 	1016
scalar warning_scenario.node[11].nic.mac1609_4 	SlotsBackoff 	1536
scalar warning_scenario.node[11].nic.mac1609_4 	NumInternalContention 	0
scalar warning_scenario.node[11].nic.mac1609_4 	totalBusyTime 	0.862992
scalar warning_scenario.node[11].veinsmobility 	startTime 	21975
scalar warning_scenario.node[11].veinsmobility 	totalTime 	1015
scalar warning_scenario.node[11].veinsmobility 	stopTime 	22991
scalar warning_scenario.node[11].veinsmobility 	minSpeed 	0
scalar warning_scenario.node[11].veinsmobility 	maxSpeed 	24.47355930287
scalar warning_scenario.node[11].veinsmobility 	totalDistance 	15247.589052174
scalar warning_scenario.node[11].veinsmobility 	totalCO2Emission 	2835.675035019
scalar warning_scenario.node[31].nic.phy80211p 	busyTime 	0.0016702296450941
scalar warning_scenario.node[31].nic.mac1609_4 	ReceivedUnicastPackets 	0
scalar warning_scenario.node[31].nic.mac1609_4 	ReceivedBroadcasts 	3629
scalar warning_scenario.node[31].nic.mac1609_4 	SentPackets 	479
scalar warning_scenario.node[31].nic.mac1609_4 	SNIRLostPackets 	2232
scalar warning_scenario.node[31].nic.mac1609_4 	RXTXLostPackets 	0
scalar warning_scenario.node[31].nic.mac1609_4 	TotalLostPackets 	2232
scalar warning_scenario.node[31].nic.mac1609_4 	DroppedPacketsInMac 	0
scalar warning_scenario.node[31].nic.mac1609_4 	TooLittleTime 	0
scalar warning_scenario.node[31].nic.mac1609_4 	TimesIntoBackoff 	479
scalar warning_scenario.node[31].nic.mac1609_4 	SlotsBackoff 	731
scalar warning_scenario.node[31].nic.mac1609_4 	NumInternalContention 	0
scalar warning_scenario.node[31].nic.mac1609_4 	totalBusyTime 	0.865663
scalar warning_scenario.node[31].veinsmobility 	startTime 	22539
scalar warning_scenario.node[31].veinsmobility 	totalTime 	478
scalar warning_scenario.node[31].veinsmobility 	stopTime 	23018
scalar warning_scenario.node[31].veinsmobility 	minSpeed 	0
scalar warning_scenario.node[31].veinsmobility 	maxSpeed 	14.803013387566
scalar warning_scenario.node[31].veinsmobility 	totalDistance 	4347.1555840952
scalar warning_scenario.node[31].veinsmobility 	totalCO2Emission 	1130.3096127456
scalar warning_scenario.node[15].nic.phy80211p 	busyTime 	0.00075568253968263
scalar warning_scenario.node[15].nic.mac1609_4 	ReceivedUnicastPackets 	0
scalar warning_scenario.node[15].nic.mac1609_4 	ReceivedBroadcasts 	3338
scalar warning_scenario.node[15].nic.mac1609_4 	SentPackets 	1008
scalar warning_scenario.node[15].nic.mac1609_4 	SNIRLostPackets 	2246
scalar warning_scenario.node[15].nic.mac1609_4 	RXTXLostPackets 	0
scalar warning_scenario.node[15].nic.mac1609_4 	TotalLostPackets 	2246
scalar warning_scenario.node[15].nic.mac1609_4 	DroppedPacketsInMac 	0
scalar warning_scenario.node[15].nic.mac1609_4 	TooLittleTime 	0
scalar warning_scenario.node[15].nic.mac1609_4 	TimesIntoBackoff 	1008
scalar warning_scenario.node[15].nic.mac1609_4 	SlotsBackoff 	1479
scalar warning_scenario.node[15].nic.mac1609_4 	NumInternalContention 	0
scalar warning_scenario.node[15].nic.mac1609_4 	totalBusyTime 	0.899824
scalar warning_scenario.node[15].veinsmobility 	startTime 	22041
scalar warning_scenario.node[15].veinsmobility 	totalTime 	1007
scalar warning_scenario.node[15].veinsmobility 	stopTime 	23049
scalar warning_scenario.node[15].veinsmobility 	minSpeed 	0
scalar warning_scenario.node[15].veinsmobility 	maxSpeed 	25.766155684984
scalar warning_scenario.node[15].veinsmobility 	totalDistance 	10635.201458898
scalar warning_scenario.node[15].veinsmobility 	totalCO2Emission 	2423.4924503523
scalar warning_scenario.node[21].nic.phy80211p 	busyTime 	0.0011083333333335
scalar warning_scenario.node[21].nic.mac1609_4 	ReceivedUnicastPackets 	0
scalar warning_scenario.node[21].nic.mac1609_4 	ReceivedBroadcasts 	4604
scalar warning_scenario.node[21].nic.mac1609_4 	SentPackets 	816
scalar warning_scenario.node[21].nic.mac1609_4 	SNIRLostPackets 	2030
scalar warning_scenario.node[21].nic.mac1609_4 	RXTXLostPackets 	0
scalar warning_scenario.node[21].nic.mac1609_4 	TotalLostPackets 	2030
scalar warning_scenario.node[21].nic.mac1609_4 	DroppedPacketsInMac 	0
scalar warning_scenario.node[21].nic.mac1609_4 	TooLittleTime 	0
scalar warning_scenario.node[21].nic.mac1609_4 	TimesIntoBackoff 	816
scalar warning_scenario.node[21].nic.mac1609_4 	SlotsBackoff 	1212
scalar warning_scenario.node[21].nic.mac1609_4 	NumInternalContention 	0
scalar warning_scenario.node[21].nic.mac1609_4 	totalBusyTime 	1.016192
scalar warning_scenario.node[21].veinsmobility 	startTime 	22246
scalar warning_scenario.node[21].veinsmobility 	totalTime 	815
scalar warning_scenario.node[21].veinsmobility 	stopTime 	23062
scalar warning_scenario.node[21].veinsmobility 	minSpeed 	0
scalar warning_scenario.node[21].veinsmobility 	maxSpeed 	34.845449474911
scalar warning_scenario.node[21].veinsmobility 	totalDistance 	9664.6990885615
scalar warning_scenario.node[21].veinsmobility 	totalCO2Emission 	2261.016177541
scalar warning_scenario.node[4].nic.phy80211p 	busyTime 	0.0004942545454546
scalar warning_scenario.node[4].nic.mac1609_4 	ReceivedUnicastPackets 	0
scalar warning_scenario.node[4].nic.mac1609_4 	ReceivedBroadcasts 	2867
scalar warning_scenario.node[4].nic.mac1609_4 	SentPackets 	1320
scalar warning_scenario.node[4].nic.mac1609_4 	SNIRLostPackets 	1917
scalar warning_scenario.node[4].nic.mac1609_4 	RXTXLostPackets 	0
scalar warning_scenario.node[4].nic.mac1609_4 	TotalLostPackets 	1917
scalar warning_scenario.node[4].nic.mac1609_4 	DroppedPacketsInMac 	0
scalar warning_scenario.node[4].nic.mac1609_4 	TooLittleTime 	0
scalar warning_scenario.node[4].nic.mac1609_4 	TimesIntoBackoff 	1320
scalar warning_scenario.node[4].nic.mac1609_4 	SlotsBackoff 	2009
scalar warning_scenario.node[4].nic.mac1609_4 	NumInternalContention 	0
scalar warning_scenario.node[4].nic.mac1609_4 	totalBusyTime 	0.833256
scalar warning_scenario.node[4].veinsmobility 	startTime 	21746
scalar warning_scenario.node[4].veinsmobility 	totalTime 	1319
scalar warning_scenario.node[4].veinsmobility 	stopTime 	23066
scalar warning_scenario.node[4].veinsmobility 	minSpeed 	0
scalar warning_scenario.node[4].veinsmobility 	maxSpeed 	28.820491529912
scalar warning_scenario.node[4].veinsmobility 	totalDistance 	17131.033069385
scalar warning_scenario.node[4].veinsmobility 	totalCO2Emission 	3578.5906664329
scalar warning_scenario.node[35].nic.phy80211p 	busyTime 	0.0016094908136485
scalar warning_scenario.node[35].nic.mac1609_4 	ReceivedUnicastPackets 	0
scalar warning_scenario.node[35].nic.mac1609_4 	ReceivedBroadcasts 	2418
scalar warning_scenario.node[35].nic.mac1609_4 	SentPackets 	381
scalar warning_scenario.node[35].nic.mac1609_4 	SNIRLostPackets 	2074
scalar warning_scenario.node[35].nic.mac1609_4 	RXTXLostPackets 	0
scalar warning_scenario.node[35].nic.mac1609_4 	TotalLostPackets 	2074
scalar warning_scenario.node[35].nic.mac1609_4 	DroppedPacketsInMac 	0
scalar warning_scenario.node[35].nic.mac1609_4 	TooLittleTime 	0
scalar warning_scenario.node[35].nic.mac1609_4 	TimesIntoBackoff 	381
scalar warning_scenario.node[35].nic.mac1609_4 	SlotsBackoff 	554
scalar warning_scenario.node[35].nic.mac1609_4 	NumInternalContention 	0
scalar warning_scenario.node[35].nic.mac1609_4 	totalBusyTime 	0.665413
scalar warning_scenario.node[35].veinsmobility 	startTime 	22703
scalar warning_scenario.node[35].veinsmobility 	totalTime 	380
scalar warning_scenario.node[35].veinsmobility 	stopTime 	23084
scalar warning_scenario.node[35].veinsmobility 	minSpeed 	2.7169532731057e-15
scalar warning_scenario.node[35].veinsmobility 	maxSpeed 	16.375103569247
scalar warning_scenario.node[35].veinsmobility 	totalDistance 	4341.2028864876
scalar warning_scenario.node[35].veinsmobility 	totalCO2Emission 	1015.0284013862
scalar warning_scenario.node[20].nic.phy80211p 	busyTime 	0.00058387185354696
scalar warning_scenario.node[20].nic.mac1609_4 	ReceivedUnicastPackets 	0
scalar warning_scenario.node[20].nic.mac1609_4 	ReceivedBroadcasts 	2305
scalar warning_scenario.node[20].nic.mac1609_4 	SentPackets 	874
scalar warning_scenario.node[20].nic.mac1609_4 	SNIRLostPackets 	1435
scalar warning_scenario.node[20].nic.mac1609_4 	RXTXLostPackets 	0
scalar warning_scenario.node[20].nic.mac1609_4 	TotalLostPackets 	1435
scalar warning_scenario.node[20].nic.mac1609_4 	DroppedPacketsInMac 	0
scalar warning_scenario.node[20].nic.mac1609_4 	TooLittleTime 	0
scalar warning_scenario.node[20].nic.mac1609_4 	TimesIntoBackoff 	874
scalar warning_scenario.node[20].nic.mac1609_4 	SlotsBackoff 	1285
scalar warning_scenario.node[20].nic.mac1609_4 	NumInternalContention 	0
scalar warning_scenario.node[20].nic.mac1609_4 	totalBusyTime 	0.630042
scalar warning_scenario.node[20].veinsmobility 	startTime 	22226
scalar warning_scenario.node[20].veinsmobility 	totalTime 	873
scalar warning_scenario.node[20].veinsmobility 	stopTime 	23100
scalar warning_scenario.node[20].veinsmobility 	minSpeed 	2.3452700737165
scalar warning_scenario.node[20].veinsmobility 	maxSpeed 	33.486121438378
scalar warning_scenario.node[20].veinsmobility 	totalDistance 	15741.847251978
scalar warning_scenario.node[20].veinsmobility 	totalCO2Emission 	3120.7748758875
scalar warning_scenario.node[33].nic.phy80211p 	busyTime 	0.0009757217391305
scalar warning_scenario.node[33].nic.mac1609_4 	ReceivedUnicastPackets 	0
scalar warning_scenario.node[33].nic.mac1609_4 	ReceivedBroadcasts 	2265
scalar warning_scenario.node[33].nic.mac1609_4 	SentPackets 	460
scalar warning_scenario.node[33].nic.mac1609_4 	SNIRLostPackets 	1023
scalar warning_scenario.node[33].nic.mac1609_4 	RXTXLostPackets 	0
scalar warning_scenario.node[33].nic.mac1609_4 	TotalLostPackets 	1023
scalar warning_scenario.node[33].nic.mac1609_4 	DroppedPacketsInMac 	0
scalar warning_scenario.node[33].nic.mac1609_4 	TooLittleTime 	0
scalar warning_scenario.node[33].nic.mac1609_4 	TimesIntoBackoff 	460
scalar warning_scenario.node[33].nic.mac1609_4 	SlotsBackoff 	719
scalar warning_scenario.node[33].nic.mac1609_4 	NumInternalContention 	0
scalar warning_scenario.node[33].nic.mac1609_4 	totalBusyTime 	0.511852
scalar warning_scenario.node[33].veinsmobility 	startTime 	22644
scalar warning_scenario.node[33].veinsmobility 	totalTime 	459
scalar warning_scenario.node[33].veinsmobility 	stopTime 	23104
scalar warning_scenario.node[33].veinsmobility 	minSpeed 	2.9645735112041e-15
scalar warning_scenario.node[33].veinsmobility 	maxSpeed 	27.970318324782
scalar warning_scenario.node[33].veinsmobility 	totalDistance 	7721.9104715198
scalar warning_scenario.node[33].veinsmobility 	totalCO2Emission 	1603.6214720457
scalar warning_scenario.node[34].nic.phy80211p 	busyTime 	0.0017274767932492
scalar warning_scenario.node[34].nic.mac1609_4 	ReceivedUnicastPackets 	0
scalar warning_scenario.node[34].nic.mac1609_4 	ReceivedBroadcasts 	3526
scalar warning_scenario.node[34].nic.mac1609_4 	SentPackets 	474
scalar warning_scenario.node[34].nic.mac1609_4 	SNIRLostPackets 	2475
scalar warning_scenario.node[34].nic.mac1609_4 	RXTXLostPackets 	0
scalar warning_scenario.node[34].nic.mac1609_4 	TotalLostPackets 	2475
scalar warning_scenario.node[34].nic.mac1609_4 	DroppedPacketsInMac 	0
scalar warning_scenario.node[34].nic.mac1609_4 	TooLittleTime 	0
scalar warning_scenario.node[34].nic.mac1609_4 	TimesIntoBackoff 	474
scalar warning_scenario.node[34].nic.mac1609_4 	SlotsBackoff 	715
scalar warning_scenario.node[34].nic.mac1609_4 	NumInternalContention 	0
scalar warning_scenario.node[34].nic.mac1609_4 	totalBusyTime 	0.883762
scalar warning_scenario.node[34].veinsmobility 	startTime 	22677
scalar warning_scenario.node[34].veinsmobility 	totalTime 	473
scalar warning_scenario.node[34].veinsmobility 	stopTime 	23151
scalar warning_scenario.node[34].veinsmobility 	minSpeed 	6.678169001505e-16
scalar warning_scenario.node[34].veinsmobility 	maxSpeed 	13.833450855331
scalar warning_scenario.node[34].veinsmobility 	totalDistance 	4532.3092189823
scalar warning_scenario.node[34].veinsmobility 	totalCO2Emission 	1149.6786742471
scalar warning_scenario.node[36].nic.phy80211p 	busyTime 	0.0019294849187937
scalar warning_scenario.node[36].nic.mac1609_4 	ReceivedUnicastPackets 	0
scalar warning_scenario.node[36].nic.mac1609_4 	ReceivedBroadcasts 	3121
scalar warning_scenario.node[36].nic.mac1609_4 	SentPackets 	431
scalar warning_scenario.node[36].nic.mac1609_4 	SNIRLostPackets 	2974
scalar warning_scenario.node[36].nic.mac1609_4 	RXTXLostPackets 	0
scalar warning_scenario.node[36].nic.mac1609_4 	TotalLostPackets 	2974
scalar warning_scenario.node[36].nic.mac1609_4 	DroppedPacketsInMac 	0
scalar warning_scenario.node[36].nic.mac1609_4 	TooLittleTime 	0
scalar warning_scenario.node[36].nic.mac1609_4 	TimesIntoBackoff 	431
scalar warning_scenario.node[36].nic.mac1609_4 	SlotsBackoff 	646
scalar warning_scenario.node[36].nic.mac1609_4 	NumInternalContention 	0
scalar warning_scenario.node[36].nic.mac1609_4 	totalBusyTime 	0.890655
scalar warning_scenario.node[36].veinsmobility 	startTime 	22758
scalar warning_scenario.node[36].veinsmobility 	totalTime 	430
scalar warning_scenario.node[36].veinsmobility 	stopTime 	23189
scalar warning_scenario.node[36].veinsmobility 	minSpeed 	6.3047535371315e-16
scalar warning_scenario.node[36].veinsmobility 	maxSpeed 	12.148187935712
scalar warning_scenario.node[36].veinsmobility 	totalDistance 	3209.0671899031
scalar warning_scenario.node[36].veinsmobility 	totalCO2Emission 	829.64230856796
scalar warning_scenario.node[13].nic.phy80211p 	busyTime 	0.0007175579649709
scalar warning_scenario.node[13].nic.mac1609_4 	ReceivedUnicastPackets 	0
scalar warning_scenario.node[13].nic.mac1609_4 	ReceivedBroadcasts 	1239
scalar warning_scenario.node[13].nic.mac1609_4 	SentPackets 	1199
scalar warning_scenario.node[13].nic.mac1609_4 	SNIRLostPackets 	5073
scalar warning_scenario.node[13].nic.mac1609_4 	RXTXLostPackets 	0
scalar warning_scenario.node[13].nic.mac1609_4 	TotalLostPackets 	5073
scalar warning_scenario.node[13].nic.mac1609_4 	DroppedPacketsInMac 	0
scalar warning_scenario.node[13].nic.mac1609_4 	TooLittleTime 	0
scalar warning_scenario.node[13].nic.mac1609_4 	TimesIntoBackoff 	1199
scalar warning_scenario.node[13].nic.mac1609_4 	SlotsBackoff 	1837
scalar warning_scenario.node[13].nic.mac1609_4 	NumInternalContention 	0
scalar warning_scenario.node[13].nic.mac1609_4 	totalBusyTime 	1.024615
scalar warning_scenario.node[13].veinsmobility 	startTime 	22022
scalar warning_scenario.node[13].veinsmobility 	totalTime 	1198
scalar warning_scenario.node[13].veinsmobility 	stopTime 	23221
scalar warning_scenario.node[13].veinsmobility 	minSpeed 	0
scalar warning_scenario.node[13].veinsmobility 	maxSpeed 	12.211873945274
scalar warning_scenario.node[13].veinsmobility 	totalDistance 	10337.981253797
scalar warning_scenario.node[13].veinsmobility 	totalCO2Emission 	2560.8411596469
scalar warning_scenario.node[6].nic.phy80211p 	busyTime 	0.00038093360711845
scalar warning_scenario.node[6].nic.mac1609_4 	ReceivedUnicastPackets 	0
scalar warning_scenario.node[6].nic.mac1609_4 	ReceivedBroadcasts 	2136
scalar warning_scenario.node[6].nic.mac1609_4 	SentPackets 	1461
scalar warning_scenario.node[6].nic.mac1609_4 	SNIRLostPackets 	1944
scalar warning_scenario.node[6].nic.mac1609_4 	RXTXLostPackets 	0
scalar warning_scenario.node[6].nic.mac1609_4 	TotalLostPackets 	1944
scalar warning_scenario.node[6].nic.mac1609_4 	DroppedPacketsInMac 	0
scalar warning_scenario.node[6].nic.mac1609_4 	TooLittleTime 	0
scalar warning_scenario.node[6].nic.mac1609_4 	TimesIntoBackoff 	1461
scalar warning_scenario.node[6].nic.mac1609_4 	SlotsBackoff 	2213
scalar warning_scenario.node[6].nic.mac1609_4 	NumInternalContention 	0
scalar warning_scenario.node[6].nic.mac1609_4 	totalBusyTime 	0.756701
scalar warning_scenario.node[6].veinsmobility 	startTime 	21793
scalar warning_scenario.node[6].veinsmobility 	totalTime 	1460
scalar warning_scenario.node[6].veinsmobility 	stopTime 	23254
scalar warning_scenario.node[6].veinsmobility 	minSpeed 	2.4306572800586e-15
scalar warning_scenario.node[6].veinsmobility 	maxSpeed 	32.857756599208
scalar warning_scenario.node[6].veinsmobility 	totalDistance 	17509.324154429
scalar warning_scenario.node[6].veinsmobility 	totalCO2Emission 	3937.4292534943
scalar warning_scenario.node[38].nic.phy80211p 	busyTime 	0.0017113846153848
scalar warning_scenario.node[38].nic.mac1609_4 	ReceivedUnicastPackets 	0
scalar warning_scenario.node[38].nic.mac1609_4 	ReceivedBroadcasts 	3339
scalar warning_scenario.node[38].nic.mac1609_4 	SentPackets 	416
scalar warning_scenario.node[38].nic.mac1609_4 	SNIRLostPackets 	1877
scalar warning_scenario.node[38].nic.mac1609_4 	RXTXLostPackets 	0
scalar warning_scenario.node[38].nic.mac1609_4 	TotalLostPackets 	1877
scalar warning_scenario.node[38].nic.mac1609_4 	DroppedPacketsInMac 	0
scalar warning_scenario.node[38].nic.mac1609_4 	TooLittleTime 	0
scalar warning_scenario.node[38].nic.mac1609_4 	TimesIntoBackoff 	416
scalar warning_scenario.node[38].nic.mac1609_4 	SlotsBackoff 	626
scalar warning_scenario.node[38].nic.mac1609_4 	NumInternalContention 	0
scalar warning_scenario.node[38].nic.mac1609_4 	totalBusyTime 	0.768928
scalar warning_scenario.node[38].veinsmobility 	startTime 	22842
scalar warning_scenario.node[38].veinsmobility 	totalTime 	415
scalar warning_scenario.node[38].veinsmobility 	stopTime 	23258
scalar warning_scenario.node[38].veinsmobility 	minSpeed 	0
scalar warning_scenario.node[38].veinsmobility 	maxSpeed 	12.058922558466
scalar warning_scenario.node[38].veinsmobility 	totalDistance 	2886.6334818508
scalar warning_scenario.node[38].veinsmobility 	totalCO2Emission 	790.92397854206
scalar warning_scenario.node[37].nic.phy80211p 	busyTime 	0.0012526351931332
scalar warning_scenario.node[37].nic.mac1609_4 	ReceivedUnicastPackets 	0
scalar warning_scenario.node[37].nic.mac1609_4 	ReceivedBroadcasts 	2413
scalar warning_scenario.node[37].nic.mac1609_4 	SentPackets 	466
scalar warning_scenario.node[37].nic.mac1609_4 	SNIRLostPackets 	1865
scalar warning_scenario.node[37].nic.mac1609_4 	RXTXLostPackets 	0
scalar warning_scenario.node[37].nic.mac1609_4 	TotalLostPackets 	1865
scalar warning_scenario.node[37].nic.mac1609_4 	DroppedPacketsInMac 	0
scalar warning_scenario.node[37].nic.mac1609_4 	TooLittleTime 	0
scalar warning_scenario.node[37].nic.mac1609_4 	TimesIntoBackoff 	466
scalar warning_scenario.node[37].nic.mac1609_4 	SlotsBackoff 	715
scalar warning_scenario.node[37].nic.mac1609_4 	NumInternalContention 	0
scalar warning_scenario.node[37].nic.mac1609_4 	totalBusyTime 	0.64757
scalar warning_scenario.node[37].veinsmobility 	startTime 	22798
scalar warning_scenario.node[37].veinsmobility 	totalTime 	465
scalar warning_scenario.node[37].veinsmobility 	stopTime 	23264
scalar warning_scenario.node[37].veinsmobility 	minSpeed 	2.6631683894622e-15
scalar warning_scenario.node[37].veinsmobility 	maxSpeed 	14.179501036388
scalar warning_scenario.node[37].veinsmobility 	totalDistance 	4851.2518930709
scalar warning_scenario.node[37].veinsmobility 	totalCO2Emission 	1120.1453722014
scalar warning_scenario.node[45].nic.phy80211p 	busyTime 	0.0017576223776225
scalar warning_scenario.node[45].nic.mac1609_4 	ReceivedUnicastPackets 	0
scalar warning_scenario.node[45].nic.mac1609_4 	ReceivedBroadcasts 	2413
scalar warning_scenario.node[45].nic.mac1609_4 	SentPackets 	286
scalar warning_scenario.node[45].nic.mac1609_4 	SNIRLostPackets 	1270
scalar warning_scenario.node[45].nic.mac1609_4 	RXTXLostPackets 	0
scalar warning_scenario.node[45].nic.mac1609_4 	TotalLostPackets 	1270
scalar warning_scenario.node[45].nic.mac1609_4 	DroppedPacketsInMac 	0
scalar warning_scenario.node[45].nic.mac1609_4 	TooLittleTime 	0
scalar warning_scenario.node[45].nic.mac1609_4 	TimesIntoBackoff 	286
scalar warning_scenario.node[45].nic.mac1609_4 	SlotsBackoff 	377
scalar warning_scenario.node[45].nic.mac1609_4 	NumInternalContention 	0
scalar warning_scenario.node[45].nic.mac1609_4 	totalBusyTime 	0.541862
scalar warning_scenario.node[45].veinsmobility 	startTime 	23005
scalar warning_scenario.node[45].veinsmobility 	totalTime 	285
scalar warning_scenario.node[45].veinsmobility 	stopTime 	23291
scalar warning_scenario.node[45].veinsmobility 	minSpeed 	3.2707520854318e-13
scalar warning_scenario.node[45].veinsmobility 	maxSpeed 	12.946837742376
scalar warning_scenario.node[45].veinsmobility 	totalDistance 	2902.2761209286
scalar warning_scenario.node[45].veinsmobility 	totalCO2Emission 	659.84969989015
scalar warning_scenario.node[26].nic.phy80211p 	busyTime 	0.00052390400000005
scalar warning_scenario.node[26].nic.mac1609_4 	ReceivedUnicastPackets 	0
scalar warning_scenario.node[26].nic.mac1609_4 	ReceivedBroadcasts 	1951
scalar warning_scenario.node[26].nic.mac1609_4 	SentPackets 	1000
scalar warning_scenario.node[26].nic.mac1609_4 	SNIRLostPackets 	1889
scalar warning_scenario.node[26].nic.mac1609_4 	RXTXLostPackets 	0
scalar warning_scenario.node[26].nic.mac1609_4 	TotalLostPackets 	1889
scalar warning_scenario.node[26].nic.mac1609_4 	DroppedPacketsInMac 	0
scalar warning_scenario.node[26].nic.mac1609_4 	TooLittleTime 	0
scalar warning_scenario.node[26].nic.mac1609_4 	TimesIntoBackoff 	1000
scalar warning_scenario.node[26].nic.mac1609_4 	SlotsBackoff 	1502
scalar warning_scenario.node[26].nic.mac1609_4 	NumInternalContention 	0
scalar warning_scenario.node[26].nic.mac1609_4 	totalBusyTime 	0.660904
scalar warning_scenario.node[26].veinsmobility 	startTime 	22354
scalar warning_scenario.node[26].veinsmobility 	totalTime 	999
scalar warning_scenario.node[26].veinsmobility 	stopTime 	23354
scalar warning_scenario.node[26].veinsmobility 	minSpeed 	2.4114765269741e-15
scalar warning_scenario.node[26].veinsmobility 	maxSpeed 	22.225262325858
scalar warning_scenario.node[26].veinsmobility 	totalDistance 	14974.039189493
scalar warning_scenario.node[26].veinsmobility 	totalCO2Emission 	2724.3721242809
scalar warning_scenario.node[41].nic.phy80211p 	busyTime 	0.0013580536082476
scalar warning_scenario.node[41].nic.mac1609_4 	ReceivedUnicastPackets 	0
scalar warning_scenario.node[41].nic.mac1609_4 	ReceivedBroadcasts 	2768
scalar warning_scenario.node[41].nic.mac1609_4 	SentPackets 	485
scalar warning_scenario.node[41].nic.mac1609_4 	SNIRLostPackets 	2060
scalar warning_scenario.node[41].nic.mac1609_4 	RXTXLostPackets 	0
scalar warning_scenario.node[41].nic.mac1609_4 	TotalLostPackets 	2060
scalar warning_scenario.node[41].nic.mac1609_4 	DroppedPacketsInMac 	0
scalar warning_scenario.node[41].nic.mac1609_4 	TooLittleTime 	0
scalar warning_scenario.node[41].nic.mac1609_4 	TimesIntoBackoff 	485
scalar warning_scenario.node[41].nic.mac1609_4 	SlotsBackoff 	733
scalar warning_scenario.node[41].nic.mac1609_4 	NumInternalContention 	0
scalar warning_scenario.node[41].nic.mac1609_4 	totalBusyTime 	0.725101
scalar warning_scenario.node[41].veinsmobility 	startTime 	22901
scalar warning_scenario.node[41].veinsmobility 	totalTime 	484
scalar warning_scenario.node[41].veinsmobility 	stopTime 	23386
scalar warning_scenario.node[41].veinsmobility 	minSpeed 	0
scalar warning_scenario.node[41].veinsmobility 	maxSpeed 	21.511825233718
scalar warning_scenario.node[41].veinsmobility 	totalDistance 	5698.8498618075
scalar warning_scenario.node[41].veinsmobility 	totalCO2Emission 	1260.1105839862
scalar warning_scenario.node[40].nic.phy80211p 	busyTime 	0.0014595241635689
scalar warning_scenario.node[40].nic.mac1609_4 	ReceivedUnicastPackets 	0
scalar warning_scenario.node[40].nic.mac1609_4 	ReceivedBroadcasts 	3557
scalar warning_scenario.node[40].nic.mac1609_4 	SentPackets 	538
scalar warning_scenario.node[40].nic.mac1609_4 	SNIRLostPackets 	2196
scalar warning_scenario.node[40].nic.mac1609_4 	RXTXLostPackets 	0
scalar warning_scenario.node[40].nic.mac1609_4 	TotalLostPackets 	2196
scalar warning_scenario.node[40].nic.mac1609_4 	DroppedPacketsInMac 	0
scalar warning_scenario.node[40].nic.mac1609_4 	TooLittleTime 	0
scalar warning_scenario.node[40].nic.mac1609_4 	TimesIntoBackoff 	538
scalar warning_scenario.node[40].nic.mac1609_4 	SlotsBackoff 	782
scalar warning_scenario.node[40].nic.mac1609_4 	NumInternalContention 	0
scalar warning_scenario.node[40].nic.mac1609_4 	totalBusyTime 	0.85893
scalar warning_scenario.node[40].veinsmobility 	startTime 	22888
scalar warning_scenario.node[40].veinsmobility 	totalTime 	537
scalar warning_scenario.node[40].veinsmobility 	stopTime 	23426
scalar warning_scenario.node[40].veinsmobility 	minSpeed 	0
scalar warning_scenario.node[40].veinsmobility 	maxSpeed 	13.283713072158
scalar warning_scenario.node[40].veinsmobility 	totalDistance 	5204.5792305971
scalar warning_scenario.node[40].veinsmobility 	totalCO2Emission 	1269.6997496383
scalar warning_scenario.node[39].nic.phy80211p 	busyTime 	0.0011148732394367
scalar warning_scenario.node[39].nic.mac1609_4 	ReceivedUnicastPackets 	0
scalar warning_scenario.node[39].nic.mac1609_4 	ReceivedBroadcasts 	2562
scalar warning_scenario.node[39].nic.mac1609_4 	SentPackets 	568
scalar warning_scenario.node[39].nic.mac1609_4 	SNIRLostPackets 	2082
scalar warning_scenario.node[39].nic.mac1609_4 	RXTXLostPackets 	0
scalar warning_scenario.node[39].nic.mac1609_4 	TotalLostPackets 	2082
scalar warning_scenario.node[39].nic.mac1609_4 	DroppedPacketsInMac 	0
scalar warning_scenario.node[39].nic.mac1609_4 	TooLittleTime 	0
scalar warning_scenario.node[39].nic.mac1609_4 	TimesIntoBackoff 	568
scalar warning_scenario.node[39].nic.mac1609_4 	SlotsBackoff 	882
scalar warning_scenario.node[39].nic.mac1609_4 	NumInternalContention 	0
scalar warning_scenario.node[39].nic.mac1609_4 	totalBusyTime 	0.711064
scalar warning_scenario.node[39].veinsmobility 	startTime 	22868
scalar warning_scenario.node[39].veinsmobility 	totalTime 	567
scalar warning_scenario.node[39].veinsmobility 	stopTime 	23436
scalar warning_scenario.node[39].veinsmobility 	minSpeed 	2.4577583275172e-15
scalar warning_scenario.node[39].veinsmobility 	maxSpeed 	21.862312568336
scalar warning_scenario.node[39].veinsmobility 	totalDistance 	7722.3738277156
scalar warning_scenario.node[39].veinsmobility 	totalCO2Emission 	1529.5207974302
scalar warning_scenario.node[55].nic.phy80211p 	busyTime 	0.0011760571428571
scalar warning_scenario.node[55].nic.mac1609_4 	ReceivedUnicastPackets 	0
scalar warning_scenario.node[55].nic.mac1609_4 	ReceivedBroadcasts 	982
scalar warning_scenario.node[55].nic.mac1609_4 	SentPackets 	140
scalar warning_scenario.node[55].nic.mac1609_4 	SNIRLostPackets 	223
scalar warning_scenario.node[55].nic.mac1609_4 	RXTXLostPackets 	0
scalar warning_scenario.node[55].nic.mac1609_4 	TotalLostPackets 	223
scalar warning_scenario.node[55].nic.mac1609_4 	DroppedPacketsInMac 	0
scalar warning_scenario.node[55].nic.mac1609_4 	TooLittleTime 	0
scalar warning_scenario.node[55].nic.mac1609_4 	TimesIntoBackoff 	140
scalar warning_scenario.node[55].nic.mac1609_4 	SlotsBackoff 	213
scalar warning_scenario.node[55].nic.mac1609_4 	NumInternalContention 	0
scalar warning_scenario.node[55].nic.mac1609_4 	totalBusyTime 	0.183828
scalar warning_scenario.node[55].veinsmobility 	startTime 	23296
scalar warning_scenario.node[55].veinsmobility 	totalTime 	139
scalar warning_scenario.node[55].veinsmobility 	stopTime 	23436
scalar warning_scenario.node[55].veinsmobility 	minSpeed 	2.5677112521368e-15
scalar warning_scenario.node[55].veinsmobility 	maxSpeed 	16.239553267479
scalar warning_scenario.node[55].veinsmobility 	totalDistance 	1253.9418064073
scalar warning_scenario.node[55].veinsmobility 	totalCO2Emission 	342.55350837294
scalar warning_scenario.node[32].nic.phy80211p 	busyTime 	0.00035954389965793
scalar warning_scenario.node[32].nic.mac1609_4 	ReceivedUnicastPackets 	0
scalar warning_scenario.node[32].nic.mac1609_4 	ReceivedBroadcasts 	1215
scalar warning_scenario.node[32].nic.mac1609_4 	SentPackets 	877
scalar warning_scenario.node[32].nic.mac1609_4 	SNIRLostPackets 	1096
scalar warning_scenario.node[32].nic.mac1609_4 	RXTXLostPackets 	0
scalar warning_scenario.node[32].nic.mac1609_4 	TotalLostPackets 	1096
scalar warning_scenario.node[32].nic.mac1609_4 	DroppedPacketsInMac 	0
scalar warning_scenario.node[32].nic.mac1609_4 	TooLittleTime 	0
scalar warning_scenario.node[32].nic.mac1609_4 	TimesIntoBackoff 	877
scalar warning_scenario.node[32].nic.mac1609_4 	SlotsBackoff 	1334
scalar warning_scenario.node[32].nic.mac1609_4 	NumInternalContention 	0
scalar warning_scenario.node[32].nic.mac1609_4 	totalBusyTime 	0.435469
scalar warning_scenario.node[32].veinsmobility 	startTime 	22585
scalar warning_scenario.node[32].veinsmobility 	totalTime 	876
scalar warning_scenario.node[32].veinsmobility 	stopTime 	23462
scalar warning_scenario.node[32].veinsmobility 	minSpeed 	6.1477795671304e-16
scalar warning_scenario.node[32].veinsmobility 	maxSpeed 	55.519098436931
scalar warning_scenario.node[32].veinsmobility 	totalDistance 	15575.904620507
scalar warning_scenario.node[32].veinsmobility 	totalCO2Emission 	3579.3960844104
scalar warning_scenario.node[44].nic.phy80211p 	busyTime 	0.0012183883089772
scalar warning_scenario.node[44].nic.mac1609_4 	ReceivedUnicastPackets 	0
scalar warning_scenario.node[44].nic.mac1609_4 	ReceivedBroadcasts 	2425
scalar warning_scenario.node[44].nic.mac1609_4 	SentPackets 	479
scalar warning_scenario.node[44].nic.mac1609_4 	SNIRLostPackets 	1854
scalar warning_scenario.node[44].nic.mac1609_4 	RXTXLostPackets 	0
scalar warning_scenario.node[44].nic.mac1609_4 	TotalLostPackets 	1854
scalar warning_scenario.node[44].nic.mac1609_4 	DroppedPacketsInMac 	0
scalar warning_scenario.node[44].nic.mac1609_4 	TooLittleTime 	0
scalar warning_scenario.node[44].nic.mac1609_4 	TimesIntoBackoff 	479
scalar warning_scenario.node[44].nic.mac1609_4 	SlotsBackoff 	728
scalar warning_scenario.node[44].nic.mac1609_4 	NumInternalContention 	0
scalar warning_scenario.node[44].nic.mac1609_4 	totalBusyTime 	0.649231
scalar warning_scenario.node[44].veinsmobility 	startTime 	22983
scalar warning_scenario.node[44].veinsmobility 	totalTime 	478
scalar warning_scenario.node[44].veinsmobility 	stopTime 	23462
scalar warning_scenario.node[44].veinsmobility 	minSpeed 	0
scalar warning_scenario.node[44].veinsmobility 	maxSpeed 	23.394438456154
scalar warning_scenario.node[44].veinsmobility 	totalDistance 	6434.4653166064
scalar warning_scenario.node[44].veinsmobility 	totalCO2Emission 	1408.9008667714
scalar warning_scenario.node[43].nic.phy80211p 	busyTime 	0.0010514201834863
scalar warning_scenario.node[43].nic.mac1609_4 	ReceivedUnicastPackets 	0
scalar warning_scenario.node[43].nic.mac1609_4 	ReceivedBroadcasts 	2468
scalar warning_scenario.node[43].nic.mac1609_4 	SentPackets 	545
scalar warning_scenario.node[43].nic.mac1609_4 	SNIRLostPackets 	1736
scalar warning_scenario.node[43].nic.mac1609_4 	RXTXLostPackets 	0
scalar warning_scenario.node[43].nic.mac1609_4 	TotalLostPackets 	1736
scalar warning_scenario.node[43].nic.mac1609_4 	DroppedPacketsInMac 	0
scalar warning_scenario.node[43].nic.mac1609_4 	TooLittleTime 	0
scalar warning_scenario.node[43].nic.mac1609_4 	TimesIntoBackoff 	545
scalar warning_scenario.node[43].nic.mac1609_4 	SlotsBackoff 	796
scalar warning_scenario.node[43].nic.mac1609_4 	NumInternalContention 	0
scalar warning_scenario.node[43].nic.mac1609_4 	totalBusyTime 	0.647689
scalar warning_scenario.node[43].veinsmobility 	startTime 	22960
scalar warning_scenario.node[43].veinsmobility 	totalTime 	544
scalar warning_scenario.node[43].veinsmobility 	stopTime 	23505
scalar warning_scenario.node[43].veinsmobility 	minSpeed 	3.2289647719825e-12
scalar warning_scenario.node[43].veinsmobility 	maxSpeed 	22.694501351408
scalar warning_scenario.node[43].veinsmobility 	totalDistance 	7518.4159832419
scalar warning_scenario.node[43].veinsmobility 	totalCO2Emission 	1542.6882418767
scalar warning_scenario.node[57].nic.phy80211p 	busyTime 	0.0011795764705882
scalar warning_scenario.node[57].nic.mac1609_4 	ReceivedUnicastPackets 	0
scalar warning_scenario.node[57].nic.mac1609_4 	ReceivedBroadcasts 	1092
scalar warning_scenario.node[57].nic.mac1609_4 	SentPackets 	170
scalar warning_scenario.node[57].nic.mac1609_4 	SNIRLostPackets 	374
scalar warning_scenario.node[57].nic.mac1609_4 	RXTXLostPackets 	0
scalar warning_scenario.node[57].nic.mac1609_4 	TotalLostPackets 	374
scalar warning_scenario.node[57].nic.mac1609_4 	DroppedPacketsInMac 	0
scalar warning_scenario.node[57].nic.mac1609_4 	TooLittleTime 	0
scalar warning_scenario.node[57].nic.mac1609_4 	TimesIntoBackoff 	170
scalar warning_scenario.node[57].nic.mac1609_4 	SlotsBackoff 	236
scalar warning_scenario.node[57].nic.mac1609_4 	NumInternalContention 	0
scalar warning_scenario.node[57].nic.mac1609_4 	totalBusyTime 	0.223818
scalar warning_scenario.node[57].veinsmobility 	startTime 	23351
scalar warning_scenario.node[57].veinsmobility 	totalTime 	169
scalar warning_scenario.node[57].veinsmobility 	stopTime 	23521
scalar warning_scenario.node[57].veinsmobility 	minSpeed 	2.2825685580494
scalar warning_scenario.node[57].veinsmobility 	maxSpeed 	14.331791738893
scalar warning_scenario.node[57].veinsmobility 	totalDistance 	1495.6329565761
scalar warning_scenario.node[57].veinsmobility 	totalCO2Emission 	383.93605150556
scalar warning_scenario.node[56].nic.phy80211p 	busyTime 	0.0011719436619718
scalar warning_scenario.node[56].nic.mac1609_4 	ReceivedUnicastPackets 	0
scalar warning_scenario.node[56].nic.mac1609_4 	ReceivedBroadcasts 	1262
scalar warning_scenario.node[56].nic.mac1609_4 	SentPackets 	213
scalar warning_scenario.node[56].nic.mac1609_4 	SNIRLostPackets 	565
scalar warning_scenario.node[56].nic.mac1609_4 	RXTXLostPackets 	0
scalar warning_scenario.node[56].nic.mac1609_4 	TotalLostPackets 	565
scalar warning_scenario.node[56].nic.mac1609_4 	DroppedPacketsInMac 	0
scalar warning_scenario.node[56].nic.mac1609_4 	TooLittleTime 	0
scalar warning_scenario.node[56].nic.mac1609_4 	TimesIntoBackoff 	213
scalar warning_scenario.node[56].nic.mac1609_4 	SlotsBackoff 	317
scalar warning_scenario.node[56].nic.mac1609_4 	NumInternalContention 	0
scalar warning_scenario.node[56].nic.mac1609_4 	totalBusyTime 	0.278805
scalar warning_scenario.node[56].veinsmobility 	startTime 	23321
scalar warning_scenario.node[56].veinsmobility 	totalTime 	212
scalar warning_scenario.node[56].veinsmobility 	stopTime 	23534
scalar warning_scenario.node[56].veinsmobility 	minSpeed 	2.7396807853288e-15
scalar warning_scenario.node[56].veinsmobility 	maxSpeed 	12.120088278209
scalar warning_scenario.node[56].veinsmobility 	totalDistance 	1960.7421508618
scalar warning_scenario.node[56].veinsmobility 	totalCO2Emission 	499.38969781036
scalar warning_scenario.node[42].nic.phy80211p 	busyTime 	0.0012110900163668
scalar warning_scenario.node[42].nic.mac1609_4 	ReceivedUnicastPackets 	0
scalar warning_scenario.node[42].nic.mac1609_4 	ReceivedBroadcasts 	3123
scalar warning_scenario.node[42].nic.mac1609_4 	SentPackets 	611
scalar warning_scenario.node[42].nic.mac1609_4 	SNIRLostPackets 	2302
scalar warning_scenario.node[42].nic.mac1609_4 	RXTXLostPackets 	0
scalar warning_scenario.node[42].nic.mac1609_4 	TotalLostPackets 	2302
scalar warning_scenario.node[42].nic.mac1609_4 	DroppedPacketsInMac 	0
scalar warning_scenario.node[42].nic.mac1609_4 	TooLittleTime 	0
scalar warning_scenario.node[42].nic.mac1609_4 	TimesIntoBackoff 	611
scalar warning_scenario.node[42].nic.mac1609_4 	SlotsBackoff 	944
scalar warning_scenario.node[42].nic.mac1609_4 	NumInternalContention 	0
scalar warning_scenario.node[42].nic.mac1609_4 	totalBusyTime 	0.823683
scalar warning_scenario.node[42].veinsmobility 	startTime 	22931
scalar warning_scenario.node[42].veinsmobility 	totalTime 	610
scalar warning_scenario.node[42].veinsmobility 	stopTime 	23542
scalar warning_scenario.node[42].veinsmobility 	minSpeed 	0
scalar warning_scenario.node[42].veinsmobility 	maxSpeed 	16.113010985726
scalar warning_scenario.node[42].veinsmobility 	totalDistance 	6165.803319646
scalar warning_scenario.node[42].veinsmobility 	totalCO2Emission 	1666.1196075412
scalar warning_scenario.node[47].nic.phy80211p 	busyTime 	0.00090271428571435
scalar warning_scenario.node[47].nic.mac1609_4 	ReceivedUnicastPackets 	0
scalar warning_scenario.node[47].nic.mac1609_4 	ReceivedBroadcasts 	1874
scalar warning_scenario.node[47].nic.mac1609_4 	SentPackets 	504
scalar warning_scenario.node[47].nic.mac1609_4 	SNIRLostPackets 	1461
scalar warning_scenario.node[47].nic.mac1609_4 	RXTXLostPackets 	0
scalar warning_scenario.node[47].nic.mac1609_4 	TotalLostPackets 	1461
scalar warning_scenario.node[47].nic.mac1609_4 	DroppedPacketsInMac 	0
scalar warning_scenario.node[47].nic.mac1609_4 	TooLittleTime 	0
scalar warning_scenario.node[47].nic.mac1609_4 	TimesIntoBackoff 	504
scalar warning_scenario.node[47].nic.mac1609_4 	SlotsBackoff 	766
scalar warning_scenario.node[47].nic.mac1609_4 	NumInternalContention 	0
scalar warning_scenario.node[47].nic.mac1609_4 	totalBusyTime 	0.524016
scalar warning_scenario.node[47].veinsmobility 	startTime 	23086
scalar warning_scenario.node[47].veinsmobility 	totalTime 	503
scalar warning_scenario.node[47].veinsmobility 	stopTime 	23590
scalar warning_scenario.node[47].veinsmobility 	minSpeed 	4.4416128613752e-15
scalar warning_scenario.node[47].veinsmobility 	maxSpeed 	10.004119567651
scalar warning_scenario.node[47].veinsmobility 	totalDistance 	3551.1493242619
scalar warning_scenario.node[47].veinsmobility 	totalCO2Emission 	925.10811568114
scalar warning_scenario.node[48].nic.phy80211p 	busyTime 	0.0010982196531793
scalar warning_scenario.node[48].nic.mac1609_4 	ReceivedUnicastPackets 	0
scalar warning_scenario.node[48].nic.mac1609_4 	ReceivedBroadcasts 	2700
scalar warning_scenario.node[48].nic.mac1609_4 	SentPackets 	519
scalar warning_scenario.node[48].nic.mac1609_4 	SNIRLostPackets 	1475
scalar warning_scenario.node[48].nic.mac1609_4 	RXTXLostPackets 	0
scalar warning_scenario.node[48].nic.mac1609_4 	TotalLostPackets 	1475
scalar warning_scenario.node[48].nic.mac1609_4 	DroppedPacketsInMac 	0
scalar warning_scenario.node[48].nic.mac1609_4 	TooLittleTime 	0
scalar warning_scenario.node[48].nic.mac1609_4 	TimesIntoBackoff 	519
scalar warning_scenario.node[48].nic.mac1609_4 	SlotsBackoff 	761
scalar warning_scenario.node[48].nic.mac1609_4 	NumInternalContention 	0
scalar warning_scenario.node[48].nic.mac1609_4 	totalBusyTime 	0.641079
scalar warning_scenario.node[48].veinsmobility 	startTime 	23120
scalar warning_scenario.node[48].veinsmobility 	totalTime 	518
scalar warning_scenario.node[48].veinsmobility 	stopTime 	23639
scalar warning_scenario.node[48].veinsmobility 	minSpeed 	0
scalar warning_scenario.node[48].veinsmobility 	maxSpeed 	12.062535240397
scalar warning_scenario.node[48].veinsmobility 	totalDistance 	4037.1063923667
scalar warning_scenario.node[48].veinsmobility 	totalCO2Emission 	1046.7418232368
scalar warning_scenario.node[46].nic.phy80211p 	busyTime 	0.0010214585289516
scalar warning_scenario.node[46].nic.mac1609_4 	ReceivedUnicastPackets 	0
scalar warning_scenario.node[46].nic.mac1609_4 	ReceivedBroadcasts 	2523
scalar warning_scenario.node[46].nic.mac1609_4 	SentPackets 	639
scalar warning_scenario.node[46].nic.mac1609_4 	SNIRLostPackets 	2266
scalar warning_scenario.node[46].nic.mac1609_4 	RXTXLostPackets 	0
scalar warning_scenario.node[46].nic.mac1609_4 	TotalLostPackets 	2266
scalar warning_scenario.node[46].nic.mac1609_4 	DroppedPacketsInMac 	0
scalar warning_scenario.node[46].nic.mac1609_4 	TooLittleTime 	0
scalar warning_scenario.node[46].nic.mac1609_4 	TimesIntoBackoff 	639
scalar warning_scenario.node[46].nic.mac1609_4 	SlotsBackoff 	950
scalar warning_scenario.node[46].nic.mac1609_4 	NumInternalContention 	0
scalar warning_scenario.node[46].nic.mac1609_4 	totalBusyTime 	0.740255
scalar warning_scenario.node[46].veinsmobility 	startTime 	23038
scalar warning_scenario.node[46].veinsmobility 	totalTime 	638
scalar warning_scenario.node[46].veinsmobility 	stopTime 	23677
scalar warning_scenario.node[46].veinsmobility 	minSpeed 	0
scalar warning_scenario.node[46].veinsmobility 	maxSpeed 	13.868556487437
scalar warning_scenario.node[46].veinsmobility 	totalDistance 	6254.1821772924
scalar warning_scenario.node[46].veinsmobility 	totalCO2Emission 	1524.6282057893
scalar warning_scenario.node[54].nic.phy80211p 	busyTime 	0.00084956563245827
scalar warning_scenario.node[54].nic.mac1609_4 	ReceivedUnicastPackets 	0
scalar warning_scenario.node[54].nic.mac1609_4 	ReceivedBroadcasts 	1432
scalar warning_scenario.node[54].nic.mac1609_4 	SentPackets 	419
scalar warning_scenario.node[54].nic.mac1609_4 	SNIRLostPackets 	1176
scalar warning_scenario.node[54].nic.mac1609_4 	RXTXLostPackets 	0
scalar warning_scenario.node[54].nic.mac1609_4 	TotalLostPackets 	1176
scalar warning_scenario.node[54].nic.mac1609_4 	DroppedPacketsInMac 	0
scalar warning_scenario.node[54].nic.mac1609_4 	TooLittleTime 	0
scalar warning_scenario.node[54].nic.mac1609_4 	TimesIntoBackoff 	419
scalar warning_scenario.node[54].nic.mac1609_4 	SlotsBackoff 	662
scalar warning_scenario.node[54].nic.mac1609_4 	NumInternalContention 	0
scalar warning_scenario.node[54].nic.mac1609_4 	totalBusyTime 	0.413371
scalar warning_scenario.node[54].veinsmobility 	startTime 	23287
scalar warning_scenario.node[54].veinsmobility 	totalTime 	418
scalar warning_scenario.node[54].veinsmobility 	stopTime 	23706
scalar warning_scenario.node[54].veinsmobility 	minSpeed 	2.4406636841644e-15
scalar warning_scenario.node[54].veinsmobility 	maxSpeed 	16.6223364459
scalar warning_scenario.node[54].veinsmobility 	totalDistance 	3971.9630483575
scalar warning_scenario.node[54].veinsmobility 	totalCO2Emission 	1105.592050592
scalar warning_scenario.node[52].nic.phy80211p 	busyTime 	0.00075012000000005
scalar warning_scenario.node[52].nic.mac1609_4 	ReceivedUnicastPackets 	0
scalar warning_scenario.node[52].nic.mac1609_4 	ReceivedBroadcasts 	2375
scalar warning_scenario.node[52].nic.mac1609_4 	SentPackets 	600
scalar warning_scenario.node[52].nic.mac1609_4 	SNIRLostPackets 	924
scalar warning_scenario.node[52].nic.mac1609_4 	RXTXLostPackets 	0
scalar warning_scenario.node[52].nic.mac1609_4 	TotalLostPackets 	924
scalar warning_scenario.node[52].nic.mac1609_4 	DroppedPacketsInMac 	0
scalar warning_scenario.node[52].nic.mac1609_4 	TooLittleTime 	0
scalar warning_scenario.node[52].nic.mac1609_4 	TimesIntoBackoff 	600
scalar warning_scenario.node[52].nic.mac1609_4 	SlotsBackoff 	913
scalar warning_scenario.node[52].nic.mac1609_4 	NumInternalContention 	0
scalar warning_scenario.node[52].nic.mac1609_4 	totalBusyTime 	0.532272
scalar warning_scenario.node[52].veinsmobility 	startTime 	23230
scalar warning_scenario.node[52].veinsmobility 	totalTime 	599
scalar warning_scenario.node[52].veinsmobility 	stopTime 	23830
scalar warning_scenario.node[52].veinsmobility 	minSpeed 	2.4318501158089e-15
scalar warning_scenario.node[52].veinsmobility 	maxSpeed 	15.664246516154
scalar warning_scenario.node[52].veinsmobility 	totalDistance 	5682.9002676091
scalar warning_scenario.node[52].veinsmobility 	totalCO2Emission 	1541.3926266161
scalar warning_scenario.node[50].nic.phy80211p 	busyTime 	0.00075680250783705
scalar warning_scenario.node[50].nic.mac1609_4 	ReceivedUnicastPackets 	0
scalar warning_scenario.node[50].nic.mac1609_4 	ReceivedBroadcasts 	1408
scalar warning_scenario.node[50].nic.mac1609_4 	SentPackets 	638
scalar warning_scenario.node[50].nic.mac1609_4 	SNIRLostPackets 	2131
scalar warning_scenario.node[50].nic.mac1609_4 	RXTXLostPackets 	0
scalar warning_scenario.node[50].nic.mac1609_4 	TotalLostPackets 	2131
scalar warning_scenario.node[50].nic.mac1609_4 	DroppedPacketsInMac 	0
scalar warning_scenario.node[50].nic.mac1609_4 	TooLittleTime 	0
scalar warning_scenario.node[50].nic.mac1609_4 	TimesIntoBackoff 	638
scalar warning_scenario.node[50].nic.mac1609_4 	SlotsBackoff 	920
scalar warning_scenario.node[50].nic.mac1609_4 	NumInternalContention 	0
scalar warning_scenario.node[50].nic.mac1609_4 	totalBusyTime 	0.570246
scalar warning_scenario.node[50].veinsmobility 	startTime 	23192
scalar warning_scenario.node[50].veinsmobility 	totalTime 	637
scalar warning_scenario.node[50].veinsmobility 	stopTime 	23830
scalar warning_scenario.node[50].veinsmobility 	minSpeed 	0
scalar warning_scenario.node[50].veinsmobility 	maxSpeed 	11.841228643537
scalar warning_scenario.node[50].veinsmobility 	totalDistance 	5459.427554527
scalar warning_scenario.node[50].veinsmobility 	totalCO2Emission 	1309.4272640691
scalar warning_scenario.node[49].nic.phy80211p 	busyTime 	0.0003346962190352
scalar warning_scenario.node[49].nic.mac1609_4 	ReceivedUnicastPackets 	0
scalar warning_scenario.node[49].nic.mac1609_4 	ReceivedBroadcasts 	1111
scalar warning_scenario.node[49].nic.mac1609_4 	SentPackets 	767
scalar warning_scenario.node[49].nic.mac1609_4 	SNIRLostPackets 	770
scalar warning_scenario.node[49].nic.mac1609_4 	RXTXLostPackets 	0
scalar warning_scenario.node[49].nic.mac1609_4 	TotalLostPackets 	770
scalar warning_scenario.node[49].nic.mac1609_4 	DroppedPacketsInMac 	0
scalar warning_scenario.node[49].nic.mac1609_4 	TooLittleTime 	0
scalar warning_scenario.node[49].nic.mac1609_4 	TimesIntoBackoff 	767
scalar warning_scenario.node[49].nic.mac1609_4 	SlotsBackoff 	1133
scalar warning_scenario.node[49].nic.mac1609_4 	NumInternalContention 	0
scalar warning_scenario.node[49].nic.mac1609_4 	totalBusyTime 	0.361791
scalar warning_scenario.node[49].veinsmobility 	startTime 	23158
scalar warning_scenario.node[49].veinsmobility 	totalTime 	766
scalar warning_scenario.node[49].veinsmobility 	stopTime 	23925
scalar warning_scenario.node[49].veinsmobility 	minSpeed 	2.2494538644562
scalar warning_scenario.node[49].veinsmobility 	maxSpeed 	29.968721173158
scalar warning_scenario.node[49].veinsmobility 	totalDistance 	15666.375108441
scalar warning_scenario.node[49].veinsmobility 	totalCO2Emission 	2969.356376327
scalar warning_scenario.node[59].nic.phy80211p 	busyTime 	0.00090184285714293
scalar warning_scenario.node[59].nic.mac1609_4 	ReceivedUnicastPackets 	0
scalar warning_scenario.node[59].nic.mac1609_4 	ReceivedBroadcasts 	2162
scalar warning_scenario.node[59].nic.mac1609_4 	SentPackets 	560
scalar warning_scenario.node[59].nic.mac1609_4 	SNIRLostPackets 	1543
scalar warning_scenario.node[59].nic.mac1609_4 	RXTXLostPackets 	0
scalar warning_scenario.node[59].nic.mac1609_4 	TotalLostPackets 	1543
scalar warning_scenario.node[59].nic.mac1609_4 	DroppedPacketsInMac 	0
scalar warning_scenario.node[59].nic.mac1609_4 	TooLittleTime 	0
scalar warning_scenario.node[59].nic.mac1609_4 	TimesIntoBackoff 	560
scalar warning_scenario.node[59].nic.mac1609_4 	SlotsBackoff 	793
[...]
scalar warning_scenario.node[96].nic.mac1609_4 	DroppedPacketsInMac 	0
scalar warning_scenario.node[96].nic.mac1609_4 	TooLittleTime 	0
scalar warning_scenario.node[96].nic.mac1609_4 	TimesIntoBackoff 	417
scalar warning_scenario.node[96].nic.mac1609_4 	SlotsBackoff 	600
scalar warning_scenario.node[96].nic.mac1609_4 	NumInternalContention 	0
scalar warning_scenario.node[96].nic.mac1609_4 	totalBusyTime 	1.045057
scalar warning_scenario.node[96].veinsmobility 	startTime 	24327
scalar warning_scenario.node[96].veinsmobility 	totalTime 	416
scalar warning_scenario.node[96].veinsmobility 	stopTime 	24744
scalar warning_scenario.node[96].veinsmobility 	minSpeed 	3.9192420049626e-14
scalar warning_scenario.node[96].veinsmobility 	maxSpeed 	18.700326563759
scalar warning_scenario.node[96].veinsmobility 	totalDistance 	4001.3293107556
scalar warning_scenario.node[96].veinsmobility 	totalCO2Emission 	1011.2016753773
scalar warning_scenario.node[81].nic.phy80211p 	busyTime 	0.0013469160935353
scalar warning_scenario.node[81].nic.mac1609_4 	ReceivedUnicastPackets 	0
scalar warning_scenario.node[81].nic.mac1609_4 	ReceivedBroadcasts 	4398
scalar warning_scenario.node[81].nic.mac1609_4 	SentPackets 	727
scalar warning_scenario.node[81].nic.mac1609_4 	SNIRLostPackets 	2787
scalar warning_scenario.node[81].nic.mac1609_4 	RXTXLostPackets 	0
scalar warning_scenario.node[81].nic.mac1609_4 	TotalLostPackets 	2787
scalar warning_scenario.node[81].nic.mac1609_4 	DroppedPacketsInMac 	0
scalar warning_scenario.node[81].nic.mac1609_4 	TooLittleTime 	0
scalar warning_scenario.node[81].nic.mac1609_4 	TimesIntoBackoff 	727
scalar warning_scenario.node[81].nic.mac1609_4 	SlotsBackoff 	1091
scalar warning_scenario.node[81].nic.mac1609_4 	NumInternalContention 	0
scalar warning_scenario.node[81].nic.mac1609_4 	totalBusyTime 	1.078807
scalar warning_scenario.node[81].veinsmobility 	startTime 	24060
scalar warning_scenario.node[81].veinsmobility 	totalTime 	726
scalar warning_scenario.node[81].veinsmobility 	stopTime 	24787
scalar warning_scenario.node[81].veinsmobility 	minSpeed 	6.7972650175145e-16
scalar warning_scenario.node[81].veinsmobility 	maxSpeed 	14.475633913743
scalar warning_scenario.node[81].veinsmobility 	totalDistance 	7027.6370138822
scalar warning_scenario.node[81].veinsmobility 	totalCO2Emission 	1698.7734734937
scalar warning_scenario.node[92].nic.phy80211p 	busyTime 	0.0019390036630038
scalar warning_scenario.node[92].nic.mac1609_4 	ReceivedUnicastPackets 	0
scalar warning_scenario.node[92].nic.mac1609_4 	ReceivedBroadcasts 	3651
scalar warning_scenario.node[92].nic.mac1609_4 	SentPackets 	546
scalar warning_scenario.node[92].nic.mac1609_4 	SNIRLostPackets 	4110
scalar warning_scenario.node[92].nic.mac1609_4 	RXTXLostPackets 	0
scalar warning_scenario.node[92].nic.mac1609_4 	TotalLostPackets 	4110
scalar warning_scenario.node[92].nic.mac1609_4 	DroppedPacketsInMac 	0
scalar warning_scenario.node[92].nic.mac1609_4 	TooLittleTime 	0
scalar warning_scenario.node[92].nic.mac1609_4 	TimesIntoBackoff 	546
scalar warning_scenario.node[92].nic.mac1609_4 	SlotsBackoff 	848
scalar warning_scenario.node[92].nic.mac1609_4 	NumInternalContention 	0
scalar warning_scenario.node[92].nic.mac1609_4 	totalBusyTime 	1.133498
scalar warning_scenario.node[92].veinsmobility 	startTime 	24243
scalar warning_scenario.node[92].veinsmobility 	totalTime 	545
scalar warning_scenario.node[92].veinsmobility 	stopTime 	24789
scalar warning_scenario.node[92].veinsmobility 	minSpeed 	0
scalar warning_scenario.node[92].veinsmobility 	maxSpeed 	22.330859366532
scalar warning_scenario.node[92].veinsmobility 	totalDistance 	4633.3533888801
scalar warning_scenario.node[92].veinsmobility 	totalCO2Emission 	1285.5246318387
scalar warning_scenario.node[88].nic.phy80211p 	busyTime 	0.0016343937007876
scalar warning_scenario.node[88].nic.mac1609_4 	ReceivedUnicastPackets 	0
scalar warning_scenario.node[88].nic.mac1609_4 	ReceivedBroadcasts 	4285
scalar warning_scenario.node[88].nic.mac1609_4 	SentPackets 	635
scalar warning_scenario.node[88].nic.mac1609_4 	SNIRLostPackets 	3333
scalar warning_scenario.node[88].nic.mac1609_4 	RXTXLostPackets 	0
scalar warning_scenario.node[88].nic.mac1609_4 	TotalLostPackets 	3333
scalar warning_scenario.node[88].nic.mac1609_4 	DroppedPacketsInMac 	0
scalar warning_scenario.node[88].nic.mac1609_4 	TooLittleTime 	0
scalar warning_scenario.node[88].nic.mac1609_4 	TimesIntoBackoff 	635
scalar warning_scenario.node[88].nic.mac1609_4 	SlotsBackoff 	972
scalar warning_scenario.node[88].nic.mac1609_4 	NumInternalContention 	0
scalar warning_scenario.node[88].nic.mac1609_4 	totalBusyTime 	1.124835
scalar warning_scenario.node[88].veinsmobility 	startTime 	24175
scalar warning_scenario.node[88].veinsmobility 	totalTime 	634
scalar warning_scenario.node[88].veinsmobility 	stopTime 	24810
scalar warning_scenario.node[88].veinsmobility 	minSpeed 	2.4690701796481e-15
scalar warning_scenario.node[88].veinsmobility 	maxSpeed 	14.016013947199
scalar warning_scenario.node[88].veinsmobility 	totalDistance 	6703.2105327674
scalar warning_scenario.node[88].veinsmobility 	totalCO2Emission 	1523.8309925449
scalar warning_scenario.node[78].nic.phy80211p 	busyTime 	0.00086880751173719
scalar warning_scenario.node[78].nic.mac1609_4 	ReceivedUnicastPackets 	0
scalar warning_scenario.node[78].nic.mac1609_4 	ReceivedBroadcasts 	3078
scalar warning_scenario.node[78].nic.mac1609_4 	SentPackets 	852
scalar warning_scenario.node[78].nic.mac1609_4 	SNIRLostPackets 	2346
scalar warning_scenario.node[78].nic.mac1609_4 	RXTXLostPackets 	0
scalar warning_scenario.node[78].nic.mac1609_4 	TotalLostPackets 	2346
scalar warning_scenario.node[78].nic.mac1609_4 	DroppedPacketsInMac 	0
scalar warning_scenario.node[78].nic.mac1609_4 	TooLittleTime 	0
scalar warning_scenario.node[78].nic.mac1609_4 	TimesIntoBackoff 	852
scalar warning_scenario.node[78].nic.mac1609_4 	SlotsBackoff 	1273
scalar warning_scenario.node[78].nic.mac1609_4 	NumInternalContention 	0
scalar warning_scenario.node[78].nic.mac1609_4 	totalBusyTime 	0.856948
scalar warning_scenario.node[78].veinsmobility 	startTime 	23982
scalar warning_scenario.node[78].veinsmobility 	totalTime 	851
scalar warning_scenario.node[78].veinsmobility 	stopTime 	24834
scalar warning_scenario.node[78].veinsmobility 	minSpeed 	6.3329085417795e-16
scalar warning_scenario.node[78].veinsmobility 	maxSpeed 	22.450332305786
scalar warning_scenario.node[78].veinsmobility 	totalDistance 	9920.6388443725
scalar warning_scenario.node[78].veinsmobility 	totalCO2Emission 	2038.4353404283
scalar warning_scenario.node[72].nic.phy80211p 	busyTime 	0.0009897917860555
scalar warning_scenario.node[72].nic.mac1609_4 	ReceivedUnicastPackets 	0
scalar warning_scenario.node[72].nic.mac1609_4 	ReceivedBroadcasts 	4012
scalar warning_scenario.node[72].nic.mac1609_4 	SentPackets 	1047
scalar warning_scenario.node[72].nic.mac1609_4 	SNIRLostPackets 	3591
scalar warning_scenario.node[72].nic.mac1609_4 	RXTXLostPackets 	0
scalar warning_scenario.node[72].nic.mac1609_4 	TotalLostPackets 	3591
scalar warning_scenario.node[72].nic.mac1609_4 	DroppedPacketsInMac 	0
scalar warning_scenario.node[72].nic.mac1609_4 	TooLittleTime 	0
scalar warning_scenario.node[72].nic.mac1609_4 	TimesIntoBackoff 	1047
scalar warning_scenario.node[72].nic.mac1609_4 	SlotsBackoff 	1588
scalar warning_scenario.node[72].nic.mac1609_4 	NumInternalContention 	0
scalar warning_scenario.node[72].nic.mac1609_4 	totalBusyTime 	1.179751
scalar warning_scenario.node[72].veinsmobility 	startTime 	23793
scalar warning_scenario.node[72].veinsmobility 	totalTime 	1046
scalar warning_scenario.node[72].veinsmobility 	stopTime 	24840
scalar warning_scenario.node[72].veinsmobility 	minSpeed 	0
scalar warning_scenario.node[72].veinsmobility 	maxSpeed 	19.657896580832
scalar warning_scenario.node[72].veinsmobility 	totalDistance 	11041.63074906
scalar warning_scenario.node[72].veinsmobility 	totalCO2Emission 	2504.9629072366
scalar warning_scenario.node[102].nic.phy80211p 	busyTime 	0.001909487603306
scalar warning_scenario.node[102].nic.mac1609_4 	ReceivedUnicastPackets 	0
scalar warning_scenario.node[102].nic.mac1609_4 	ReceivedBroadcasts 	2416
scalar warning_scenario.node[102].nic.mac1609_4 	SentPackets 	363
scalar warning_scenario.node[102].nic.mac1609_4 	SNIRLostPackets 	2659
scalar warning_scenario.node[102].nic.mac1609_4 	RXTXLostPackets 	0
scalar warning_scenario.node[102].nic.mac1609_4 	TotalLostPackets 	2659
scalar warning_scenario.node[102].nic.mac1609_4 	DroppedPacketsInMac 	0
scalar warning_scenario.node[102].nic.mac1609_4 	TooLittleTime 	0
scalar warning_scenario.node[102].nic.mac1609_4 	TimesIntoBackoff 	363
scalar warning_scenario.node[102].nic.mac1609_4 	SlotsBackoff 	524
scalar warning_scenario.node[102].nic.mac1609_4 	NumInternalContention 	0
scalar warning_scenario.node[102].nic.mac1609_4 	totalBusyTime 	0.742875
scalar warning_scenario.node[102].veinsmobility 	startTime 	24495
scalar warning_scenario.node[102].veinsmobility 	totalTime 	362
scalar warning_scenario.node[102].veinsmobility 	stopTime 	24858
scalar warning_scenario.node[102].veinsmobility 	minSpeed 	0
scalar warning_scenario.node[102].veinsmobility 	maxSpeed 	13.407122766497
scalar warning_scenario.node[102].veinsmobility 	totalDistance 	2754.7551568681
scalar warning_scenario.node[102].veinsmobility 	totalCO2Emission 	768.9446872793
scalar warning_scenario.node[73].nic.phy80211p 	busyTime 	0.0006011620903455
scalar warning_scenario.node[73].nic.mac1609_4 	ReceivedUnicastPackets 	0
scalar warning_scenario.node[73].nic.mac1609_4 	ReceivedBroadcasts 	2191
scalar warning_scenario.node[73].nic.mac1609_4 	SentPackets 	1129
scalar warning_scenario.node[73].nic.mac1609_4 	SNIRLostPackets 	2792
scalar warning_scenario.node[73].nic.mac1609_4 	RXTXLostPackets 	0
scalar warning_scenario.node[73].nic.mac1609_4 	TotalLostPackets 	2792
scalar warning_scenario.node[73].nic.mac1609_4 	DroppedPacketsInMac 	0
scalar warning_scenario.node[73].nic.mac1609_4 	TooLittleTime 	0
scalar warning_scenario.node[73].nic.mac1609_4 	TimesIntoBackoff 	1129
scalar warning_scenario.node[73].nic.mac1609_4 	SlotsBackoff 	1775
scalar warning_scenario.node[73].nic.mac1609_4 	NumInternalContention 	0
scalar warning_scenario.node[73].nic.mac1609_4 	totalBusyTime 	0.833385
scalar warning_scenario.node[73].veinsmobility 	startTime 	23814
scalar warning_scenario.node[73].veinsmobility 	totalTime 	1128
scalar warning_scenario.node[73].veinsmobility 	stopTime 	24943
scalar warning_scenario.node[73].veinsmobility 	minSpeed 	2.431472023946e-15
scalar warning_scenario.node[73].veinsmobility 	maxSpeed 	26.351943509397
scalar warning_scenario.node[73].veinsmobility 	totalDistance 	13679.907713576
scalar warning_scenario.node[73].veinsmobility 	totalCO2Emission 	2848.3430413694
scalar warning_scenario.node[106].nic.phy80211p 	busyTime 	0.0021855826558268
scalar warning_scenario.node[106].nic.mac1609_4 	ReceivedUnicastPackets 	0
scalar warning_scenario.node[106].nic.mac1609_4 	ReceivedBroadcasts 	2994
scalar warning_scenario.node[106].nic.mac1609_4 	SentPackets 	369
scalar warning_scenario.node[106].nic.mac1609_4 	SNIRLostPackets 	2920
scalar warning_scenario.node[106].nic.mac1609_4 	RXTXLostPackets 	0
scalar warning_scenario.node[106].nic.mac1609_4 	TotalLostPackets 	2920
scalar warning_scenario.node[106].nic.mac1609_4 	DroppedPacketsInMac 	0
scalar warning_scenario.node[106].nic.mac1609_4 	TooLittleTime 	0
scalar warning_scenario.node[106].nic.mac1609_4 	TimesIntoBackoff 	369
scalar warning_scenario.node[106].nic.mac1609_4 	SlotsBackoff 	520
scalar warning_scenario.node[106].nic.mac1609_4 	NumInternalContention 	0
scalar warning_scenario.node[106].nic.mac1609_4 	totalBusyTime 	0.857033
scalar warning_scenario.node[106].veinsmobility 	startTime 	24578
scalar warning_scenario.node[106].veinsmobility 	totalTime 	368
scalar warning_scenario.node[106].veinsmobility 	stopTime 	24947
scalar warning_scenario.node[106].veinsmobility 	minSpeed 	0.021184859874074
scalar warning_scenario.node[106].veinsmobility 	maxSpeed 	15.120641677666
scalar warning_scenario.node[106].veinsmobility 	totalDistance 	4260.6316323737
scalar warning_scenario.node[106].veinsmobility 	totalCO2Emission 	959.5483212107
scalar warning_scenario.node[86].nic.phy80211p 	busyTime 	0.0008405933014355
scalar warning_scenario.node[86].nic.mac1609_4 	ReceivedUnicastPackets 	0
scalar warning_scenario.node[86].nic.mac1609_4 	ReceivedBroadcasts 	2537
scalar warning_scenario.node[86].nic.mac1609_4 	SentPackets 	836
scalar warning_scenario.node[86].nic.mac1609_4 	SNIRLostPackets 	2617
scalar warning_scenario.node[86].nic.mac1609_4 	RXTXLostPackets 	0
scalar warning_scenario.node[86].nic.mac1609_4 	TotalLostPackets 	2617
scalar warning_scenario.node[86].nic.mac1609_4 	DroppedPacketsInMac 	0
scalar warning_scenario.node[86].nic.mac1609_4 	TooLittleTime 	0
scalar warning_scenario.node[86].nic.mac1609_4 	TimesIntoBackoff 	836
scalar warning_scenario.node[86].nic.mac1609_4 	SlotsBackoff 	1340
scalar warning_scenario.node[86].nic.mac1609_4 	NumInternalContention 	0
scalar warning_scenario.node[86].nic.mac1609_4 	totalBusyTime 	0.817268
scalar warning_scenario.node[86].veinsmobility 	startTime 	24114
scalar warning_scenario.node[86].veinsmobility 	totalTime 	835
scalar warning_scenario.node[86].veinsmobility 	stopTime 	24950
scalar warning_scenario.node[86].veinsmobility 	minSpeed 	0
scalar warning_scenario.node[86].veinsmobility 	maxSpeed 	22.466357944103
scalar warning_scenario.node[86].veinsmobility 	totalDistance 	7680.4597251887
scalar warning_scenario.node[86].veinsmobility 	totalCO2Emission 	1934.9388005242
scalar warning_scenario.node[99].nic.phy80211p 	busyTime 	0.0020101942078365
scalar warning_scenario.node[99].nic.mac1609_4 	ReceivedUnicastPackets 	0
scalar warning_scenario.node[99].nic.mac1609_4 	ReceivedBroadcasts 	4623
scalar warning_scenario.node[99].nic.mac1609_4 	SentPackets 	587
scalar warning_scenario.node[99].nic.mac1609_4 	SNIRLostPackets 	4027
scalar warning_scenario.node[99].nic.mac1609_4 	RXTXLostPackets 	0
scalar warning_scenario.node[99].nic.mac1609_4 	TotalLostPackets 	4027
scalar warning_scenario.node[99].nic.mac1609_4 	DroppedPacketsInMac 	0
scalar warning_scenario.node[99].nic.mac1609_4 	TooLittleTime 	0
scalar warning_scenario.node[99].nic.mac1609_4 	TimesIntoBackoff 	587
scalar warning_scenario.node[99].nic.mac1609_4 	SlotsBackoff 	887
scalar warning_scenario.node[99].nic.mac1609_4 	NumInternalContention 	0
scalar warning_scenario.node[99].nic.mac1609_4 	totalBusyTime 	1.260403
scalar warning_scenario.node[99].veinsmobility 	startTime 	24384
scalar warning_scenario.node[99].veinsmobility 	totalTime 	586
scalar warning_scenario.node[99].veinsmobility 	stopTime 	24971
scalar warning_scenario.node[99].veinsmobility 	minSpeed 	2.78901282877e-15
scalar warning_scenario.node[99].veinsmobility 	maxSpeed 	18.695045601738
scalar warning_scenario.node[99].veinsmobility 	totalDistance 	5343.3381409539
scalar warning_scenario.node[99].veinsmobility 	totalCO2Emission 	1343.351537115
scalar warning_scenario.node[87].nic.phy80211p 	busyTime 	0.0013413682955901
scalar warning_scenario.node[87].nic.mac1609_4 	ReceivedUnicastPackets 	0
scalar warning_scenario.node[87].nic.mac1609_4 	ReceivedBroadcasts 	4772
scalar warning_scenario.node[87].nic.mac1609_4 	SentPackets 	839
scalar warning_scenario.node[87].nic.mac1609_4 	SNIRLostPackets 	3488
scalar warning_scenario.node[87].nic.mac1609_4 	RXTXLostPackets 	0
scalar warning_scenario.node[87].nic.mac1609_4 	TotalLostPackets 	3488
scalar warning_scenario.node[87].nic.mac1609_4 	DroppedPacketsInMac 	0
scalar warning_scenario.node[87].nic.mac1609_4 	TooLittleTime 	0
scalar warning_scenario.node[87].nic.mac1609_4 	TimesIntoBackoff 	839
scalar warning_scenario.node[87].nic.mac1609_4 	SlotsBackoff 	1240
scalar warning_scenario.node[87].nic.mac1609_4 	NumInternalContention 	0
scalar warning_scenario.node[87].nic.mac1609_4 	totalBusyTime 	1.240351
scalar warning_scenario.node[87].veinsmobility 	startTime 	24146
scalar warning_scenario.node[87].veinsmobility 	totalTime 	838
scalar warning_scenario.node[87].veinsmobility 	stopTime 	24985
scalar warning_scenario.node[87].veinsmobility 	minSpeed 	0
scalar warning_scenario.node[87].veinsmobility 	maxSpeed 	12.762535455607
scalar warning_scenario.node[87].veinsmobility 	totalDistance 	7031.3833187324
scalar warning_scenario.node[87].veinsmobility 	totalCO2Emission 	1735.6132830354
scalar warning_scenario.node[91].nic.phy80211p 	busyTime 	0.0015166632653061
scalar warning_scenario.node[91].nic.mac1609_4 	ReceivedUnicastPackets 	0
scalar warning_scenario.node[91].nic.mac1609_4 	ReceivedBroadcasts 	4611
scalar warning_scenario.node[91].nic.mac1609_4 	SentPackets 	784
scalar warning_scenario.node[91].nic.mac1609_4 	SNIRLostPackets 	4118
scalar warning_scenario.node[91].nic.mac1609_4 	RXTXLostPackets 	0
scalar warning_scenario.node[91].nic.mac1609_4 	TotalLostPackets 	4118
scalar warning_scenario.node[91].nic.mac1609_4 	DroppedPacketsInMac 	0
scalar warning_scenario.node[91].nic.mac1609_4 	TooLittleTime 	0
scalar warning_scenario.node[91].nic.mac1609_4 	TimesIntoBackoff 	784
scalar warning_scenario.node[91].nic.mac1609_4 	SlotsBackoff 	1142
scalar warning_scenario.node[91].nic.mac1609_4 	NumInternalContention 	0
scalar warning_scenario.node[91].nic.mac1609_4 	totalBusyTime 	1.296472
scalar warning_scenario.node[91].veinsmobility 	startTime 	24228
scalar warning_scenario.node[91].veinsmobility 	totalTime 	783
scalar warning_scenario.node[91].veinsmobility 	stopTime 	25012
scalar warning_scenario.node[91].veinsmobility 	minSpeed 	6.3162620308957e-16
scalar warning_scenario.node[91].veinsmobility 	maxSpeed 	12.833762313212
scalar warning_scenario.node[91].veinsmobility 	totalDistance 	6885.5968299085
scalar warning_scenario.node[91].veinsmobility 	totalCO2Emission 	1651.4594456137
scalar warning_scenario.node[128].nic.phy80211p 	busyTime 	0.0038756233183861
scalar warning_scenario.node[128].nic.mac1609_4 	ReceivedUnicastPackets 	0
scalar warning_scenario.node[128].nic.mac1609_4 	ReceivedBroadcasts 	4261
scalar warning_scenario.node[128].nic.mac1609_4 	SentPackets 	223
scalar warning_scenario.node[128].nic.mac1609_4 	SNIRLostPackets 	2076
scalar warning_scenario.node[128].nic.mac1609_4 	RXTXLostPackets 	0
scalar warning_scenario.node[128].nic.mac1609_4 	TotalLostPackets 	2076
scalar warning_scenario.node[128].nic.mac1609_4 	DroppedPacketsInMac 	0
scalar warning_scenario.node[128].nic.mac1609_4 	TooLittleTime 	0
scalar warning_scenario.node[128].nic.mac1609_4 	TimesIntoBackoff 	223
scalar warning_scenario.node[128].nic.mac1609_4 	SlotsBackoff 	357
scalar warning_scenario.node[128].nic.mac1609_4 	NumInternalContention 	0
scalar warning_scenario.node[128].nic.mac1609_4 	totalBusyTime 	0.887063
scalar warning_scenario.node[128].veinsmobility 	startTime 	24827
scalar warning_scenario.node[128].veinsmobility 	totalTime 	222
scalar warning_scenario.node[128].veinsmobility 	stopTime 	25050
scalar warning_scenario.node[128].veinsmobility 	minSpeed 	5.9600881149696e-14
scalar warning_scenario.node[128].veinsmobility 	maxSpeed 	13.726141582301
scalar warning_scenario.node[128].veinsmobility 	totalDistance 	1620.3221639316
scalar warning_scenario.node[128].veinsmobility 	totalCO2Emission 	484.21451676601
scalar warning_scenario.node[83].nic.phy80211p 	busyTime 	0.0010801460446248
scalar warning_scenario.node[83].nic.mac1609_4 	ReceivedUnicastPackets 	0
scalar warning_scenario.node[83].nic.mac1609_4 	ReceivedBroadcasts 	4191
scalar warning_scenario.node[83].nic.mac1609_4 	SentPackets 	986
scalar warning_scenario.node[83].nic.mac1609_4 	SNIRLostPackets 	3625
scalar warning_scenario.node[83].nic.mac1609_4 	RXTXLostPackets 	0
scalar warning_scenario.node[83].nic.mac1609_4 	TotalLostPackets 	3625
scalar warning_scenario.node[83].nic.mac1609_4 	DroppedPacketsInMac 	0
scalar warning_scenario.node[83].nic.mac1609_4 	TooLittleTime 	0
scalar warnin